/*--------------------------------*- C++ -*----------------------------------*\
| =========                 |                                                 |
| \\      /  F ield         | OpenFOAM: The Open Source CFD Toolbox           |
|  \\    /   O peration     | Version:  2506                                  |
|   \\  /    A nd           | Website:  www.openfoam.com                      |
|    \\/     M anipulation  |                                                 |
\*---------------------------------------------------------------------------*/
FoamFile
{
    version     2.0;
    format      ascii;
    arch        "LSB;label=32;scalar=64";
    class       featureEdgeMesh;
    location    "constant/triSurface";
    object      wheel.eMesh;
}
// * * * * * * * * * * * * * * * * * * * * * * * * * * * * * * * * * * * * * //


// points:

3092
(
(0.00116381 0.00105006 0.053438)
(0.00143792 0.00105008 0.0534053)
(0.000879111 0.00105003 0.0534596)
(0.000496578 0.00105 0.0534698)
(0.000588208 0.00105 0.0534693)
(0.00170028 0.0010501 0.0533624)
(0.0019503 0.00105011 0.0533104)
(0.00216349 0.0010501 0.0532569)
(0.0023864 0.00105008 0.0531909)
(0.00259644 0.00105005 0.0531188)
(0.00279455 0.00105002 0.053041)
(0.00298202 0.00105 0.052958)
(0.00301023 0.00105 0.0529446)
(0.00309437 0.00104999 0.0529034)
(0.00316694 0.00104999 0.0528661)
(0.00324314 0.00104999 0.052825)
(0.00330874 0.00105 0.052788)
(0.00337785 0.00105 0.0527471)
(0.00343746 0.00105 0.0527103)
(0.00350035 0.00105001 0.0526698)
(0.00355468 0.00105001 0.0526332)
(0.00361171 0.00105002 0.0525932)
(0.00366043 0.00105002 0.0525576)
(0.00371127 0.00105002 0.0525189)
(0.00375497 0.00105003 0.0524843)
(0.00380078 0.00105003 0.0524465)
(0.00384033 0.00105003 0.0524125)
(0.00388194 0.00105002 0.0523754)
(0.00391799 0.00105002 0.0523419)
(0.00395602 0.00105002 0.0523052)
(0.00398905 0.00105001 0.052272)
(0.00402399 0.00105001 0.0522355)
(0.00423671 0.00104995 0.0519729)
(0.0042642 0.00104995 0.0519322)
(0.00421168 0.00104996 0.0520083)
(0.00406079 0.00105 0.0521954)
(0.0040907 0.00104999 0.0521613)
(0.00412082 0.00104998 0.0521257)
(0.00415386 0.00104997 0.0520848)
(0.00418136 0.00104997 0.0520493)
(0.00428677 0.00104994 0.0518972)
(0.00431147 0.00104994 0.051857)
(0.00433166 0.00104993 0.0518225)
(0.00435368 0.00104993 0.0517829)
(0.00437159 0.00104993 0.051749)
(0.00439106 0.00104993 0.0517102)
(0.00440682 0.00104993 0.0516769)
(0.00442388 0.00104993 0.0516389)
(0.00443764 0.00104993 0.0516063)
(0.00445245 0.00104993 0.0515691)
(0.00446438 0.00104993 0.0515371)
(0.00447714 0.00104994 0.0515005)
(0.00448739 0.00104994 0.051469)
(0.0044982 0.00104995 0.0514332)
(0.00450683 0.00104995 0.0514022)
(0.00451579 0.00104996 0.0513671)
(0.00452288 0.00104996 0.0513367)
(0.0045301 0.00104997 0.0513024)
(0.00453571 0.00104997 0.0512726)
(0.0045413 0.00104998 0.051239)
(0.0045455 0.00104998 0.0512099)
(0.00454955 0.00104999 0.0511769)
(0.00455243 0.00104999 0.0511486)
(0.00455501 0.00104999 0.0511162)
(0.00455664 0.00105 0.0510885)
(0.00455782 0.00105 0.0510567)
(0.00455823 0.00105 0.0510339)
(0.00455829 0.00105 0.0510208)
(-0.00356513 0.00105 0.0510208)
(-0.00356381 0.00105 0.0510817)
(-0.00356011 0.00104999 0.0511398)
(-0.00355394 0.00104999 0.0511987)
(-0.00354521 0.00104998 0.0512584)
(-0.00353384 0.00104997 0.0513189)
(-0.0035197 0.00104996 0.0513804)
(-0.0035027 0.00104996 0.0514426)
(-0.00348268 0.00104995 0.0515058)
(-0.00345949 0.00104994 0.0515698)
(-0.00343298 0.00104994 0.0516348)
(-0.003403 0.00104994 0.0517005)
(-0.00336929 0.00104994 0.0517672)
(-0.00333147 0.00104994 0.0518352)
(-0.0032893 0.00104995 0.0519044)
(-0.00324256 0.00104995 0.0519746)
(-0.00218555 0.00105 0.0528602)
(-0.00201647 0.00105 0.0529449)
(-0.00319107 0.00104997 0.0520456)
(-0.00313474 0.00104998 0.0521172)
(-0.00306822 0.00105 0.0521947)
(-0.00305295 0.00105 0.0522116)
(-0.00299716 0.00105001 0.0522707)
(-0.00298468 0.00105001 0.0522834)
(-0.00292516 0.00105002 0.0523416)
(-0.0029116 0.00105002 0.0523544)
(-0.00284672 0.00105003 0.052413)
(-0.00283202 0.00105003 0.0524258)
(-0.00276104 0.00105003 0.0524851)
(-0.00274506 0.00105003 0.0524979)
(-0.00266702 0.00105003 0.0525581)
(-0.00264959 0.00105002 0.052571)
(-0.00256328 0.00105002 0.0526324)
(-0.00254418 0.00105002 0.0526455)
(-0.00244817 0.00105002 0.0527084)
(-0.0024271 0.00105001 0.0527216)
(-0.00232226 0.00105001 0.0527846)
(-0.00229946 0.00105001 0.0527977)
(-0.000838068 0.00105 0.0533339)
(-0.00078584 0.00105 0.0533446)
(-0.000595414 0.00105 0.0533797)
(-0.000340701 0.00105 0.0534173)
(-0.00148196 0.00105 0.0531598)
(-0.00128057 0.00105 0.0532232)
(-0.00106631 0.00105 0.0532814)
(-0.00185054 0.00105 0.0530196)
(-0.00167158 0.00105 0.0530919)
(-7.96927e-05 0.00105 0.0534451)
(0.000188483 0.00105 0.0534627)
(0.000464979 0.00105 0.0534697)
(-0.00324965 0.00104994 -0.0519638)
(-0.00329918 0.00104993 -0.0518879)
(-0.00319489 0.00104996 -0.0520402)
(-0.00276177 0.00105003 -0.0524845)
(-0.00284682 0.00105003 -0.052413)
(-0.00292418 0.00105003 -0.0523427)
(-0.00299502 0.00105002 -0.052273)
(-0.00306709 0.00105 -0.052196)
(-0.00307099 0.00105 -0.0521916)
(-0.00313497 0.00104998 -0.0521167)
(-0.00334358 0.00104992 -0.0518131)
(-0.00338303 0.00104992 -0.0517395)
(-0.00341778 0.00104992 -0.0516674)
(-0.00344811 0.00104992 -0.0515968)
(-0.00347437 0.00104993 -0.0515277)
(-0.00349692 0.00104994 -0.0514597)
(-0.00351593 0.00104995 -0.051393)
(-0.00353157 0.00104996 -0.0513277)
(-0.00354401 0.00104997 -0.0512637)
(-0.00355343 0.00104998 -0.0512012)
(-0.00356 0.00104999 -0.05114)
(-0.00356385 0.00105 -0.0510802)
(-0.00356513 0.00105 -0.0510208)
(0.00374604 0.00105003 -0.0524916)
(0.00365173 0.00105002 -0.0525642)
(0.00354743 0.00105002 -0.0526383)
(-0.000207294 0.00105006 -0.0534343)
(-0.000480382 0.00105009 -0.0534002)
(0.00053695 0.00105 -0.0534697)
(0.000377732 0.00105 -0.0534688)
(7.98873e-05 0.00105003 -0.0534576)
(-0.000740093 0.00105011 -0.0533563)
(-0.000987297 0.00105011 -0.0533035)
(-0.00122177 0.0010501 -0.0532426)
(-0.00144241 0.00105007 -0.0531749)
(-0.00165029 0.00105005 -0.0531012)
(-0.00184651 0.00105002 -0.0530219)
(0.00343124 0.00105001 -0.0527144)
(0.00330349 0.00105 -0.0527911)
(0.00316364 0.00104999 -0.0528679)
(0.00301 0.00105 -0.0529447)
(0.00300958 0.00105 -0.0529449)
(0.00283246 0.00105002 -0.0530249)
(0.00264974 0.00105004 -0.0530988)
(0.00245827 0.00105007 -0.0531673)
(0.00225732 0.00105009 -0.0532304)
(0.0020461 0.00105011 -0.0532875)
(0.00182374 0.00105011 -0.0533382)
(0.00158936 0.0010501 -0.053382)
(0.001343 0.00105007 -0.053418)
(0.0010858 0.00105004 -0.0534451)
(0.000817265 0.00105002 -0.0534626)
(-0.00201725 0.00105 -0.0529445)
(-0.00217423 0.00104999 -0.0528659)
(-0.00231605 0.00105 -0.0527877)
(-0.00244478 0.00105001 -0.0527101)
(-0.00256196 0.00105002 -0.0526331)
(-0.00266754 0.00105003 -0.0525576)
(0.00455829 0.00105 -0.0510208)
(0.00455699 0.00105 -0.0510807)
(0.00455335 0.00104999 -0.0511379)
(0.00454727 0.00104998 -0.0511962)
(0.00453864 0.00104997 -0.0512555)
(0.00452735 0.00104996 -0.0513158)
(0.00451326 0.00104995 -0.0513772)
(0.00449625 0.00104995 -0.0514397)
(0.00447615 0.00104994 -0.0515033)
(0.00445283 0.00104993 -0.0515679)
(0.00423496 0.00104995 -0.0519753)
(0.00418349 0.00104996 -0.0520464)
(0.00442614 0.00104993 -0.0516335)
(0.00439594 0.00104992 -0.0516999)
(0.00436204 0.00104993 -0.0517671)
(0.00432405 0.00104993 -0.0518355)
(0.00428176 0.00104994 -0.051905)
(0.00412727 0.00104998 -0.0521178)
(0.0040663 0.00105 -0.0521892)
(0.00405021 0.00105 -0.0522071)
(0.00398265 0.00105002 -0.0522786)
(0.00391045 0.00105003 -0.0523491)
(0.00383189 0.00105003 -0.05242)
(0.00974274 0.00626738 0.075)
(0.00658789 0.00611599 0.075)
(0.0158916 0.00674237 0.075)
(0.0126704 0.0064638 0.075)
(0.0220176 0.00745396 0.075)
(0.0187352 0.00704292 0.075)
(0.0281116 0.0084011 0.075)
(0.0247736 0.00785251 0.075)
(0.0341645 0.00958239 0.075)
(0.0307768 0.00889141 0.075)
(0.0401675 0.0109961 0.075)
(0.0367361 0.0101581 0.075)
(0.0461115 0.01264 0.075)
(0.0426428 0.0116507 0.075)
(0.0519877 0.0145118 0.075)
(0.0484884 0.0133672 0.075)
(0.0577875 0.0166087 0.075)
(0.0542645 0.0153049 0.075)
(0.0635021 0.0189275 0.075)
(0.0599626 0.0174611 0.075)
(0.0691231 0.0214649 0.075)
(0.0655744 0.0198327 0.075)
(0.0746422 0.024217 0.075)
(0.071092 0.0224163 0.075)
(0.0800511 0.0271797 0.075)
(0.0765071 0.025208 0.075)
(0.0853418 0.0303486 0.075)
(0.0818121 0.0282038 0.075)
(0.0905064 0.0337191 0.075)
(0.0869991 0.0313994 0.075)
(0.0955373 0.0372862 0.075)
(0.0920607 0.0347902 0.075)
(0.100427 0.0410444 0.075)
(0.0969896 0.0383713 0.075)
(0.105168 0.0449883 0.075)
(0.101779 0.0421373 0.075)
(0.109754 0.049112 0.075)
(0.106421 0.046083 0.075)
(0.114177 0.0534094 0.075)
(0.110909 0.0502026 0.075)
(0.118432 0.057874 0.075)
(0.115238 0.05449 0.075)
(0.122511 0.0624993 0.075)
(0.1194 0.0589391 0.075)
(0.126409 0.0672783 0.075)
(0.123389 0.0635434 0.075)
(0.13012 0.072204 0.075)
(0.127201 0.0682963 0.075)
(0.133639 0.0772691 0.075)
(0.130829 0.0731909 0.075)
(0.136959 0.082466 0.075)
(0.134268 0.07822 0.075)
(0.140077 0.087787 0.075)
(0.137512 0.0833764 0.075)
(0.142988 0.0932242 0.075)
(0.140559 0.0886526 0.075)
(0.145686 0.0987695 0.075)
(0.143402 0.0940409 0.075)
(0.148169 0.104415 0.075)
(0.146038 0.0995336 0.075)
(0.150433 0.110151 0.075)
(0.148463 0.105123 0.075)
(0.152474 0.115971 0.075)
(0.150673 0.1108 0.075)
(0.154289 0.121865 0.075)
(0.152666 0.116557 0.075)
(0.155876 0.127825 0.075)
(0.154438 0.122386 0.075)
(0.157231 0.133841 0.075)
(0.155986 0.128279 0.075)
(0.158354 0.139905 0.075)
(0.15731 0.134226 0.075)
(0.159243 0.146008 0.075)
(0.158406 0.140219 0.075)
(0.159895 0.15214 0.075)
(0.159273 0.146249 0.075)
(0.160311 0.158294 0.075)
(0.15991 0.152308 0.075)
(0.160489 0.164458 0.075)
(0.160315 0.158387 0.075)
(0.160497 0.166 0.075)
(0.160489 0.164477 0.075)
(-0.0118263 0.325525 0.075)
(-0.00863763 0.325739 0.075)
(-0.0179648 0.324931 0.075)
(-0.0147124 0.325276 0.075)
(-0.024076 0.324102 0.075)
(-0.0207651 0.324581 0.075)
(-0.0301506 0.323037 0.075)
(-0.026787 0.323657 0.075)
(-0.0361797 0.32174 0.075)
(-0.0327693 0.322504 0.075)
(-0.0421542 0.320211 0.075)
(-0.0387034 0.321124 0.075)
(-0.0480655 0.318452 0.075)
(-0.0445806 0.319519 0.075)
(-0.0539045 0.316468 0.075)
(-0.0503925 0.317691 0.075)
(-0.0596628 0.314259 0.075)
(-0.0561306 0.315644 0.075)
(-0.0653317 0.311831 0.075)
(-0.0617866 0.31338 0.075)
(-0.0709027 0.309186 0.075)
(-0.0673523 0.310902 0.075)
(-0.0763677 0.306328 0.075)
(-0.0728197 0.308214 0.075)
(-0.0817185 0.303261 0.075)
(-0.0781807 0.305319 0.075)
(-0.0869472 0.299991 0.075)
(-0.0834276 0.302223 0.075)
(-0.0920459 0.296522 0.075)
(-0.0885529 0.298929 0.075)
(-0.0970072 0.292858 0.075)
(-0.0935491 0.295443 0.075)
(-0.101824 0.289006 0.075)
(-0.0984089 0.291768 0.075)
(-0.106488 0.284972 0.075)
(-0.103125 0.287912 0.075)
(-0.110993 0.280761 0.075)
(-0.107691 0.283879 0.075)
(-0.115333 0.276379 0.075)
(-0.112101 0.279674 0.075)
(-0.119501 0.271833 0.075)
(-0.116347 0.275305 0.075)
(-0.12349 0.26713 0.075)
(-0.120423 0.270778 0.075)
(-0.127295 0.262277 0.075)
(-0.124325 0.266098 0.075)
(-0.130911 0.25728 0.075)
(-0.128045 0.261274 0.075)
(-0.134331 0.252148 0.075)
(-0.131579 0.256311 0.075)
(-0.137551 0.246889 0.075)
(-0.134921 0.251217 0.075)
(-0.140565 0.241508 0.075)
(-0.138067 0.246 0.075)
(-0.14337 0.236016 0.075)
(-0.141013 0.240667 0.075)
(-0.145962 0.23042 0.075)
(-0.143753 0.235225 0.075)
(-0.148336 0.224728 0.075)
(-0.146284 0.229683 0.075)
(-0.150488 0.218949 0.075)
(-0.148602 0.224049 0.075)
(-0.152417 0.213091 0.075)
(-0.150704 0.218331 0.075)
(-0.154118 0.207163 0.075)
(-0.152586 0.212537 0.075)
(-0.155589 0.201174 0.075)
(-0.154247 0.206675 0.075)
(-0.156829 0.195132 0.075)
(-0.155683 0.200754 0.075)
(-0.157835 0.189048 0.075)
(-0.156893 0.194783 0.075)
(-0.158605 0.182929 0.075)
(-0.157875 0.18877 0.075)
(-0.15914 0.176785 0.075)
(-0.158627 0.182725 0.075)
(-0.159437 0.170625 0.075)
(-0.159148 0.176654 0.075)
(-0.159318 0.158294 0.075)
(-0.159322 0.158387 0.075)
(0.00677631 0.00117028 0.053487)
(0.000496578 0.006 0.075)
(-0.002587 0.00602972 0.075)
(-0.00559474 0.00611599 0.075)
(-0.00874958 0.00626738 0.075)
(-0.0116772 0.0064638 0.075)
(-0.0148984 0.00674237 0.075)
(-0.017742 0.00704292 0.075)
(-0.0210244 0.00745396 0.075)
(-0.0237804 0.00785251 0.075)
(-0.0271184 0.0084011 0.075)
(-0.0297836 0.00889141 0.075)
(-0.0331714 0.00958239 0.075)
(-0.0357429 0.0101581 0.075)
(-0.0391743 0.0109961 0.075)
(-0.0416496 0.0116507 0.075)
(-0.0451183 0.01264 0.075)
(-0.0474953 0.0133672 0.075)
(-0.0509946 0.0145118 0.075)
(-0.0532713 0.0153049 0.075)
(-0.0567943 0.0166087 0.075)
(-0.0589694 0.0174611 0.075)
(-0.0625089 0.0189275 0.075)
(-0.0645813 0.0198327 0.075)
(-0.0681299 0.0214649 0.075)
(-0.0700988 0.0224163 0.075)
(-0.073649 0.024217 0.075)
(-0.075514 0.025208 0.075)
(-0.0790579 0.0271797 0.075)
(-0.0808189 0.0282038 0.075)
(-0.0843486 0.0303486 0.075)
(-0.086006 0.0313994 0.075)
(-0.0895133 0.0337191 0.075)
(-0.0910676 0.0347902 0.075)
(-0.0945442 0.0372862 0.075)
(-0.0959965 0.0383713 0.075)
(-0.0994339 0.0410444 0.075)
(-0.100785 0.0421373 0.075)
(-0.104175 0.0449883 0.075)
(-0.105428 0.046083 0.075)
(-0.108761 0.049112 0.075)
(-0.109916 0.0502026 0.075)
(-0.113184 0.0534094 0.075)
(-0.114245 0.05449 0.075)
(-0.117439 0.057874 0.075)
(-0.118407 0.0589391 0.075)
(-0.121518 0.0624993 0.075)
(-0.122396 0.0635434 0.075)
(-0.125416 0.0672783 0.075)
(-0.126208 0.0682963 0.075)
(-0.129127 0.072204 0.075)
(-0.129836 0.0731909 0.075)
(-0.132646 0.0772691 0.075)
(-0.133274 0.07822 0.075)
(-0.135966 0.082466 0.075)
(-0.136519 0.0833764 0.075)
(-0.139084 0.087787 0.075)
(-0.139565 0.0886526 0.075)
(-0.141994 0.0932242 0.075)
(-0.142409 0.0940409 0.075)
(-0.144693 0.0987695 0.075)
(-0.145045 0.0995336 0.075)
(-0.147176 0.104415 0.075)
(-0.147469 0.105123 0.075)
(-0.14944 0.110151 0.075)
(-0.14968 0.1108 0.075)
(-0.151481 0.115971 0.075)
(-0.151672 0.116557 0.075)
(-0.153296 0.121865 0.075)
(-0.153444 0.122386 0.075)
(-0.154882 0.127825 0.075)
(-0.154993 0.128279 0.075)
(-0.156238 0.133841 0.075)
(-0.156317 0.134226 0.075)
(-0.157361 0.139905 0.075)
(-0.157413 0.140219 0.075)
(-0.158249 0.146008 0.075)
(-0.15828 0.146249 0.075)
(-0.158902 0.15214 0.075)
(-0.158917 0.152308 0.075)
(-0.00254963 0.325971 0.075)
(0.000496578 0.326 0.075)
(0.00354279 0.325971 0.075)
(0.00666259 0.325881 0.075)
(0.00963079 0.325739 0.075)
(0.0128195 0.325525 0.075)
(0.0157055 0.325276 0.075)
(0.018958 0.324931 0.075)
(0.0217583 0.324581 0.075)
(0.0250691 0.324102 0.075)
(0.0277801 0.323657 0.075)
(0.0311437 0.323037 0.075)
(0.0337624 0.322504 0.075)
(0.0371728 0.32174 0.075)
(0.0396965 0.321124 0.075)
(0.0431474 0.320211 0.075)
(0.0455738 0.319519 0.075)
(0.0490586 0.318452 0.075)
(0.0513857 0.317691 0.075)
(0.0548977 0.316468 0.075)
(0.0571238 0.315644 0.075)
(0.0606559 0.314259 0.075)
(0.0627798 0.31338 0.075)
(0.0663248 0.311831 0.075)
(0.0683455 0.310902 0.075)
(0.0718959 0.309186 0.075)
(0.0738128 0.308214 0.075)
(0.0773609 0.306328 0.075)
(0.0791738 0.305319 0.075)
(0.0827117 0.303261 0.075)
(0.0844208 0.302223 0.075)
(0.0879403 0.299991 0.075)
(0.0895461 0.298929 0.075)
(0.0930391 0.296522 0.075)
(0.0945422 0.295443 0.075)
(0.0980003 0.292858 0.075)
(0.099402 0.291768 0.075)
(0.102817 0.289006 0.075)
(0.104118 0.287912 0.075)
(0.107481 0.284972 0.075)
(0.108685 0.283879 0.075)
(0.111986 0.280761 0.075)
(0.113094 0.279674 0.075)
(0.116326 0.276379 0.075)
(0.11734 0.275305 0.075)
(0.120494 0.271833 0.075)
(0.121417 0.270778 0.075)
(0.124483 0.26713 0.075)
(0.125318 0.266098 0.075)
(0.128289 0.262277 0.075)
(0.129038 0.261274 0.075)
(0.131904 0.25728 0.075)
(0.132572 0.256311 0.075)
(0.135324 0.252148 0.075)
(0.135915 0.251217 0.075)
(0.138544 0.246889 0.075)
(0.139061 0.246 0.075)
(0.141559 0.241508 0.075)
(0.142006 0.240667 0.075)
(0.144364 0.236016 0.075)
(0.144746 0.235225 0.075)
(0.146955 0.23042 0.075)
(0.147277 0.229683 0.075)
(0.149329 0.224728 0.075)
(0.149595 0.224049 0.075)
(0.151481 0.218949 0.075)
(0.151697 0.218331 0.075)
(0.15341 0.213091 0.075)
(0.153579 0.212537 0.075)
(0.155111 0.207163 0.075)
(0.15524 0.206675 0.075)
(0.156582 0.201174 0.075)
(0.156676 0.200754 0.075)
(0.157822 0.195132 0.075)
(0.157886 0.194783 0.075)
(0.158828 0.189048 0.075)
(0.158868 0.18877 0.075)
(0.159598 0.182929 0.075)
(0.15962 0.182725 0.075)
(0.160133 0.176785 0.075)
(0.160141 0.176654 0.075)
(0.16043 0.170625 0.075)
(0.160431 0.170569 0.075)
(0.00358016 0.00602972 0.075)
(-0.159496 0.164477 0.075)
(-0.159438 0.170569 0.075)
(-0.00566944 0.325881 0.075)
(0.00974274 0.325733 -0.075)
(0.00658789 0.325884 -0.075)
(0.0158916 0.325258 -0.075)
(0.0126704 0.325536 -0.075)
(0.0220176 0.324546 -0.075)
(0.0187352 0.324957 -0.075)
(0.0281116 0.323599 -0.075)
(0.0247736 0.324147 -0.075)
(0.0341645 0.322418 -0.075)
(0.0307768 0.323109 -0.075)
(0.0401675 0.321004 -0.075)
(0.0367361 0.321842 -0.075)
(0.0461115 0.31936 -0.075)
(0.0426428 0.320349 -0.075)
(0.0519877 0.317488 -0.075)
(0.0484884 0.318633 -0.075)
(0.0577875 0.315391 -0.075)
(0.0542645 0.316695 -0.075)
(0.0635021 0.313072 -0.075)
(0.0599626 0.314539 -0.075)
(0.0691231 0.310535 -0.075)
(0.0655744 0.312167 -0.075)
(0.0746422 0.307783 -0.075)
(0.071092 0.309584 -0.075)
(0.0800511 0.30482 -0.075)
(0.0765071 0.306792 -0.075)
(0.0853418 0.301651 -0.075)
(0.0818121 0.303796 -0.075)
(0.0905064 0.298281 -0.075)
(0.0869991 0.300601 -0.075)
(0.0955373 0.294714 -0.075)
(0.0920607 0.29721 -0.075)
(0.100427 0.290956 -0.075)
(0.0969896 0.293629 -0.075)
(0.105168 0.287012 -0.075)
(0.101779 0.289863 -0.075)
(0.109754 0.282888 -0.075)
(0.106421 0.285917 -0.075)
(0.114177 0.278591 -0.075)
(0.110909 0.281797 -0.075)
(0.118432 0.274126 -0.075)
(0.115238 0.27751 -0.075)
(0.122511 0.269501 -0.075)
(0.1194 0.273061 -0.075)
(0.126409 0.264722 -0.075)
(0.123389 0.268457 -0.075)
(0.13012 0.259796 -0.075)
(0.127201 0.263704 -0.075)
(0.133639 0.254731 -0.075)
(0.130829 0.258809 -0.075)
(0.136959 0.249534 -0.075)
(0.134268 0.25378 -0.075)
(0.140077 0.244213 -0.075)
(0.137512 0.248624 -0.075)
(0.142988 0.238776 -0.075)
(0.140559 0.243347 -0.075)
(0.145686 0.233231 -0.075)
(0.143402 0.237959 -0.075)
(0.148169 0.227585 -0.075)
(0.146038 0.232466 -0.075)
(0.150433 0.221849 -0.075)
(0.148463 0.226877 -0.075)
(0.152474 0.216029 -0.075)
(0.150673 0.2212 -0.075)
(0.154289 0.210135 -0.075)
(0.152666 0.215443 -0.075)
(0.155876 0.204175 -0.075)
(0.154438 0.209614 -0.075)
(0.157231 0.198159 -0.075)
(0.155986 0.203721 -0.075)
(0.158354 0.192095 -0.075)
(0.15731 0.197774 -0.075)
(0.159243 0.185992 -0.075)
(0.158406 0.191781 -0.075)
(0.159895 0.17986 -0.075)
(0.159273 0.185751 -0.075)
(0.160311 0.173706 -0.075)
(0.15991 0.179692 -0.075)
(0.160489 0.167542 -0.075)
(0.160315 0.173613 -0.075)
(0.160497 0.166 -0.075)
(0.160489 0.167523 -0.075)
(-0.0118263 0.00647525 -0.075)
(-0.00863763 0.00626094 -0.075)
(-0.0179648 0.00706864 -0.075)
(-0.0147124 0.00672449 -0.075)
(-0.024076 0.00789816 -0.075)
(-0.0207651 0.00741897 -0.075)
(-0.0301506 0.00896258 -0.075)
(-0.026787 0.00834338 -0.075)
(-0.0361797 0.0102603 -0.075)
(-0.0327693 0.00949638 -0.075)
(-0.0421542 0.0117894 -0.075)
(-0.0387034 0.0108763 -0.075)
(-0.0480655 0.0135476 -0.075)
(-0.0445806 0.0124811 -0.075)
(-0.0539045 0.0155323 -0.075)
(-0.0503925 0.0143085 -0.075)
(-0.0596628 0.0177406 -0.075)
(-0.0561306 0.0163559 -0.075)
(-0.0653317 0.0201691 -0.075)
(-0.0617866 0.0186202 -0.075)
(-0.0709027 0.0228143 -0.075)
(-0.0673523 0.0210982 -0.075)
(-0.0763677 0.0256722 -0.075)
(-0.0728197 0.0237863 -0.075)
(-0.0817185 0.0287387 -0.075)
(-0.0781807 0.0266806 -0.075)
(-0.0869472 0.032009 -0.075)
(-0.0834276 0.0297769 -0.075)
(-0.0920459 0.0354784 -0.075)
(-0.0885529 0.0330707 -0.075)
(-0.0970072 0.0391417 -0.075)
(-0.0935491 0.0365573 -0.075)
(-0.101824 0.0429935 -0.075)
(-0.0984089 0.0402315 -0.075)
(-0.106488 0.0470281 -0.075)
(-0.103125 0.0440881 -0.075)
(-0.110993 0.0512394 -0.075)
(-0.107691 0.0481214 -0.075)
(-0.115333 0.0556212 -0.075)
(-0.112101 0.0523257 -0.075)
(-0.119501 0.060167 -0.075)
(-0.116347 0.0566947 -0.075)
(-0.12349 0.06487 -0.075)
(-0.120423 0.0612223 -0.075)
(-0.127295 0.0697233 -0.075)
(-0.124325 0.0659017 -0.075)
(-0.130911 0.0747196 -0.075)
(-0.128045 0.0707263 -0.075)
(-0.134331 0.0798515 -0.075)
(-0.131579 0.0756891 -0.075)
(-0.137551 0.0851114 -0.075)
(-0.134921 0.0807828 -0.075)
(-0.140565 0.0904915 -0.075)
(-0.138067 0.086 -0.075)
(-0.14337 0.0959838 -0.075)
(-0.141013 0.0913332 -0.075)
(-0.145962 0.10158 -0.075)
(-0.143753 0.0967747 -0.075)
(-0.148336 0.107272 -0.075)
(-0.146284 0.102317 -0.075)
(-0.150488 0.113051 -0.075)
(-0.148602 0.107951 -0.075)
(-0.152417 0.118909 -0.075)
(-0.150704 0.113669 -0.075)
(-0.154118 0.124837 -0.075)
(-0.152586 0.119463 -0.075)
(-0.155589 0.130826 -0.075)
(-0.154247 0.125325 -0.075)
(-0.156829 0.136868 -0.075)
(-0.155683 0.131246 -0.075)
(-0.157835 0.142952 -0.075)
(-0.156893 0.137217 -0.075)
(-0.158605 0.149071 -0.075)
(-0.157875 0.14323 -0.075)
(-0.15914 0.155215 -0.075)
(-0.158627 0.149275 -0.075)
(-0.159437 0.161375 -0.075)
(-0.159148 0.155346 -0.075)
(-0.159318 0.173706 -0.075)
(-0.159322 0.173613 -0.075)
(-0.0391743 0.321004 -0.075)
(-0.0416496 0.320349 -0.075)
(0.000496578 0.326 -0.075)
(-0.002587 0.32597 -0.075)
(-0.00559474 0.325884 -0.075)
(-0.00874958 0.325733 -0.075)
(-0.0116772 0.325536 -0.075)
(-0.0148984 0.325258 -0.075)
(-0.017742 0.324957 -0.075)
(-0.0210244 0.324546 -0.075)
(-0.0237804 0.324147 -0.075)
(-0.0271184 0.323599 -0.075)
(-0.0297836 0.323109 -0.075)
(-0.0331714 0.322418 -0.075)
(-0.0357429 0.321842 -0.075)
(-0.0451183 0.31936 -0.075)
(-0.0474953 0.318633 -0.075)
(-0.0509946 0.317488 -0.075)
(-0.0532713 0.316695 -0.075)
(-0.0567943 0.315391 -0.075)
(-0.0589694 0.314539 -0.075)
(-0.0625089 0.313072 -0.075)
(-0.0645813 0.312167 -0.075)
(-0.0681299 0.310535 -0.075)
(-0.0700988 0.309584 -0.075)
(-0.073649 0.307783 -0.075)
(-0.075514 0.306792 -0.075)
(-0.0790579 0.30482 -0.075)
(-0.0808189 0.303796 -0.075)
(-0.0843486 0.301651 -0.075)
(-0.086006 0.300601 -0.075)
(-0.0895133 0.298281 -0.075)
(-0.0910676 0.29721 -0.075)
(-0.0945442 0.294714 -0.075)
(-0.0959965 0.293629 -0.075)
(-0.0994339 0.290956 -0.075)
(-0.100785 0.289863 -0.075)
(-0.104175 0.287012 -0.075)
(-0.105428 0.285917 -0.075)
(-0.108761 0.282888 -0.075)
(-0.109916 0.281797 -0.075)
(-0.113184 0.278591 -0.075)
(-0.114245 0.27751 -0.075)
(-0.117439 0.274126 -0.075)
(-0.118407 0.273061 -0.075)
(-0.121518 0.269501 -0.075)
(-0.122396 0.268457 -0.075)
(-0.125416 0.264722 -0.075)
(-0.126208 0.263704 -0.075)
(-0.129127 0.259796 -0.075)
(-0.129836 0.258809 -0.075)
(-0.132646 0.254731 -0.075)
(-0.133274 0.25378 -0.075)
(-0.135966 0.249534 -0.075)
(-0.136519 0.248624 -0.075)
(-0.139084 0.244213 -0.075)
(-0.139565 0.243347 -0.075)
(-0.141994 0.238776 -0.075)
(-0.142409 0.237959 -0.075)
(-0.144693 0.233231 -0.075)
(-0.145045 0.232466 -0.075)
(-0.147176 0.227585 -0.075)
(-0.147469 0.226877 -0.075)
(-0.14944 0.221849 -0.075)
(-0.14968 0.2212 -0.075)
(-0.151481 0.216029 -0.075)
(-0.151672 0.215443 -0.075)
(-0.153296 0.210135 -0.075)
(-0.153444 0.209614 -0.075)
(-0.154882 0.204175 -0.075)
(-0.154993 0.203721 -0.075)
(-0.156238 0.198159 -0.075)
(-0.156317 0.197774 -0.075)
(-0.157361 0.192095 -0.075)
(-0.157413 0.191781 -0.075)
(-0.158249 0.185992 -0.075)
(-0.15828 0.185751 -0.075)
(-0.158902 0.17986 -0.075)
(-0.158917 0.179692 -0.075)
(-0.00254963 0.006029 -0.075)
(0.000496578 0.006 -0.075)
(0.00354279 0.006029 -0.075)
(0.00666259 0.00611885 -0.075)
(0.00963079 0.00626094 -0.075)
(0.0128195 0.00647525 -0.075)
(0.0157055 0.00672449 -0.075)
(0.018958 0.00706864 -0.075)
(0.0217583 0.00741897 -0.075)
(0.0250691 0.00789816 -0.075)
(0.0277801 0.00834338 -0.075)
(0.0311437 0.00896258 -0.075)
(0.0337624 0.00949638 -0.075)
(0.0371728 0.0102603 -0.075)
(0.0396965 0.0108763 -0.075)
(0.0431474 0.0117894 -0.075)
(0.0455738 0.0124811 -0.075)
(0.0490586 0.0135476 -0.075)
(0.0513857 0.0143085 -0.075)
(0.0548977 0.0155323 -0.075)
(0.0571238 0.0163559 -0.075)
(0.0606559 0.0177406 -0.075)
(0.0627798 0.0186202 -0.075)
(0.0663248 0.0201691 -0.075)
(0.0683455 0.0210982 -0.075)
(0.0718959 0.0228143 -0.075)
(0.0738128 0.0237863 -0.075)
(0.0773609 0.0256722 -0.075)
(0.0791738 0.0266806 -0.075)
(0.0827117 0.0287387 -0.075)
(0.0844208 0.0297769 -0.075)
(0.0879403 0.032009 -0.075)
(0.0895461 0.0330707 -0.075)
(0.0930391 0.0354784 -0.075)
(0.0945422 0.0365573 -0.075)
(0.0980003 0.0391417 -0.075)
(0.099402 0.0402315 -0.075)
(0.102817 0.0429935 -0.075)
(0.104118 0.0440881 -0.075)
(0.107481 0.0470281 -0.075)
(0.108685 0.0481214 -0.075)
(0.111986 0.0512394 -0.075)
(0.113094 0.0523257 -0.075)
(0.116326 0.0556212 -0.075)
(0.11734 0.0566947 -0.075)
(0.120494 0.060167 -0.075)
(0.121417 0.0612223 -0.075)
(0.124483 0.06487 -0.075)
(0.125318 0.0659017 -0.075)
(0.128289 0.0697233 -0.075)
(0.129038 0.0707263 -0.075)
(0.131904 0.0747196 -0.075)
(0.132572 0.0756891 -0.075)
(0.135324 0.0798515 -0.075)
(0.135915 0.0807828 -0.075)
(0.138544 0.0851114 -0.075)
(0.139061 0.086 -0.075)
(0.141559 0.0904915 -0.075)
(0.142006 0.0913332 -0.075)
(0.144364 0.0959838 -0.075)
(0.144746 0.0967747 -0.075)
(0.146955 0.10158 -0.075)
(0.147277 0.102317 -0.075)
(0.149329 0.107272 -0.075)
(0.149595 0.107951 -0.075)
(0.151481 0.113051 -0.075)
(0.151697 0.113669 -0.075)
(0.15341 0.118909 -0.075)
(0.153579 0.119463 -0.075)
(0.155111 0.124837 -0.075)
(0.15524 0.125325 -0.075)
(0.156582 0.130826 -0.075)
(0.156676 0.131246 -0.075)
(0.157822 0.136868 -0.075)
(0.157886 0.137217 -0.075)
(0.158828 0.142952 -0.075)
(0.158868 0.14323 -0.075)
(0.159598 0.149071 -0.075)
(0.15962 0.149275 -0.075)
(0.160133 0.155215 -0.075)
(0.160141 0.155346 -0.075)
(0.16043 0.161375 -0.075)
(0.160431 0.161431 -0.075)
(0.00358016 0.32597 -0.075)
(-0.00566944 0.00611885 -0.075)
(-0.159496 0.167523 -0.075)
(-0.159438 0.161431 -0.075)
(-0.0656018 0.226568 -0.0817365)
(-0.0628969 0.229393 -0.0817365)
(-0.0600714 0.232098 -0.0817365)
(-0.0571306 0.234677 -0.0817365)
(-0.0730117 0.217471 -0.0821644)
(-0.0706966 0.220628 -0.0821644)
(-0.068246 0.223682 -0.0821644)
(-0.0656645 0.226625 -0.0821644)
(0.0162008 0.255063 -0.0842262)
(0.0200707 0.254293 -0.0842262)
(0.0239034 0.253355 -0.0842262)
(0.0276915 0.252251 -0.0842262)
(-0.0266983 0.252251 -0.0842262)
(-0.0229102 0.253355 -0.0842262)
(-0.0190776 0.254293 -0.0842262)
(-0.0152076 0.255063 -0.0842262)
(-0.0113078 0.255663 -0.0842262)
(-0.0268195 0.252635 -0.085)
(-0.0230145 0.253744 -0.085)
(-0.0191647 0.254686 -0.085)
(-0.0152776 0.25546 -0.085)
(0.0318142 0.252044 -0.0860876)
(0.0355375 0.250596 -0.0860876)
(0.0391942 0.248987 -0.0860876)
(0.0427773 0.24722 -0.0860876)
(-0.0417841 0.24722 -0.0860876)
(-0.0382011 0.248987 -0.0860876)
(-0.0345444 0.250596 -0.0860876)
(-0.030821 0.252044 -0.0860876)
(0.0665949 0.226568 0.0817365)
(0.0638901 0.229393 0.0817365)
(0.0610645 0.232098 0.0817365)
(0.0581237 0.234677 0.0817365)
(-0.0730117 0.114529 0.0821644)
(-0.0706966 0.111372 0.0821644)
(-0.068246 0.108318 0.0821644)
(-0.0656645 0.105375 0.0821644)
(0.0276915 0.252251 0.0842262)
(0.0239034 0.253355 0.0842262)
(0.0200707 0.254293 0.0842262)
(0.0162008 0.255063 0.0842262)
(0.012301 0.255663 0.0842262)
(-0.0152076 0.255063 0.0842262)
(-0.0190776 0.254293 0.0842262)
(-0.0229102 0.253355 0.0842262)
(-0.0266983 0.252251 0.0842262)
(0.0278126 0.252635 0.085)
(0.0240076 0.253744 0.085)
(0.0201579 0.254686 0.085)
(0.0162707 0.25546 0.085)
(-0.0191647 0.254686 0.085)
(-0.0230145 0.253744 0.085)
(-0.0268195 0.252635 0.085)
(-0.0305724 0.251361 0.085)
(0.0427773 0.24722 0.0860876)
(0.0391942 0.248987 0.0860876)
(0.0355375 0.250596 0.0860876)
(0.0318142 0.252044 0.0860876)
(-0.030821 0.252044 0.0860876)
(-0.0345444 0.250596 0.0860876)
(-0.0382011 0.248987 0.0860876)
(-0.0417841 0.24722 0.0860876)
(0.000496578 0.0010507 0.053487)
(0.0677254 0.222412 -0.0760171)
(0.0701221 0.219426 -0.0760171)
(0.0723862 0.216338 -0.0760171)
(0.0745135 0.213154 -0.0760171)
(0.0764999 0.209881 -0.0760171)
(0.0783416 0.206524 -0.0760171)
(0.0745135 0.118846 -0.0760171)
(0.0723862 0.115662 -0.0760171)
(0.0701221 0.112574 -0.0760171)
(0.0677254 0.109588 -0.0760171)
(0.0652008 0.106709 -0.0760171)
(-0.0642077 0.106709 -0.0760171)
(-0.0667323 0.109588 -0.0760171)
(-0.0691289 0.112574 -0.0760171)
(-0.0713931 0.115662 -0.0760171)
(-0.0735203 0.118846 -0.0760171)
(-0.0755067 0.122119 -0.0760171)
(-0.0773484 0.125476 -0.0760171)
(-0.0713931 0.216338 -0.0760171)
(-0.0691289 0.219426 -0.0760171)
(-0.0667323 0.222412 -0.0760171)
(-0.0642077 0.225291 -0.0760171)
(-0.0258937 0.249699 -0.0760171)
(-0.0222177 0.250771 -0.0760171)
(-0.0184984 0.251681 -0.0760171)
(-0.014743 0.252428 -0.0760171)
(0.015766 0.252597 -0.0760474)
(0.0195287 0.251849 -0.0760474)
(0.0232553 0.250937 -0.0760474)
(0.0269385 0.249863 -0.0760474)
(-0.0222621 0.250937 -0.0760474)
(-0.0185356 0.251849 -0.0760474)
(-0.0147728 0.252597 -0.0760474)
(-0.010981 0.253181 -0.0760474)
(0.00433585 0.253934 -0.0760681)
(0.00816782 0.253683 -0.0760681)
(0.0119852 0.253265 -0.0760681)
(0.0232772 0.251018 -0.0760681)
(0.026964 0.249944 -0.0760681)
(0.0306004 0.24871 -0.0760681)
(0.0341795 0.247318 -0.0760681)
(0.0376944 0.245771 -0.0760681)
(0.0411386 0.244073 -0.0760681)
(0.0445054 0.242226 -0.0760681)
(0.0477884 0.240233 -0.0760681)
(0.0509814 0.2381 -0.0760681)
(0.0540783 0.235829 -0.0760681)
(0.0599604 0.230893 -0.0760681)
(0.0627344 0.228238 -0.0760681)
(0.06539 0.225464 -0.0760681)
(0.067922 0.222577 -0.0760681)
(0.0703257 0.219582 -0.0760681)
(0.0725964 0.216485 -0.0760681)
(0.0747299 0.213292 -0.0760681)
(0.0767221 0.210009 -0.0760681)
(0.0785692 0.206642 -0.0760681)
(0.0802676 0.203198 -0.0760681)
(0.0818143 0.199683 -0.0760681)
(0.0832061 0.196104 -0.0760681)
(0.0844405 0.192467 -0.0760681)
(0.0855151 0.188781 -0.0760681)
(0.0864278 0.185051 -0.0760681)
(0.087177 0.181284 -0.0760681)
(0.0877612 0.177489 -0.0760681)
(0.0881793 0.173671 -0.0760681)
(0.0884304 0.169839 -0.0760681)
(0.0885142 0.166 -0.0760681)
(0.0884304 0.162161 -0.0760681)
(0.0881793 0.158329 -0.0760681)
(0.0877612 0.154511 -0.0760681)