// -*- C++ -*-
// File generated by PyFoam - sorry for the ugliness

FoamFile
{
 version 2.0;
 format ascii;
 class dictionary;
 object controlDict;
}

application simpleFoam;

startFrom startTime;

startTime 0;

stopAt endTime;

endTime 4000;

deltaT 1;

writeControl timeStep;

writeInterval 1000;

purgeWrite 1;

writeFormat ascii;

writePrecision 6;

writeCompression no;
writeAtEnd yes;
timeFormat general;

timePrecision 6;

runTimeModifiable yes;
functions
{
#include "forceCoeffs"
#include "runTimeControls"
#include "yPlus"
#include "solverInfo"
#include "graphFunctionObject"
} 	// ************************************************************************* //

