/*--------------------------------*- C++ -*----------------------------------*\
| =========                 |                                                 |
| \\      /  F ield         | OpenFOAM: The Open Source CFD Toolbox           |
|  \\    /   O peration     | Version:  2506                                  |
|   \\  /    A nd           | Website:  www.openfoam.com                      |
|    \\/     M anipulation  |                                                 |
\*---------------------------------------------------------------------------*/
FoamFile
{
    version     2.0;
    format      ascii;
    arch        "LSB;label=32;scalar=64";
    class       volScalarField;
    location    "constant";
    object      cellDeterminant;
}
// * * * * * * * * * * * * * * * * * * * * * * * * * * * * * * * * * * * * * //

dimensions      [0 0 0 0 0 0 0];

internalField   nonuniform List<scalar> 
17000
(
0.0898549
0.26628
0.26628
0.26628
0.26628
0.26628
0.26628
0.26628
0.26628
0.26628
0.26628
0.26628
0.26628
0.26628
0.26628
0.26628
0.26628
0.26628
0.26628
0.26628
0.26628
0.26628
0.26628
0.26628
0.26628
0.26628
0.26628
0.26628
0.26628
0.26628
0.26628
0.26628
0.26628
0.26628
0.26628
0.26628
0.26628
0.26628
0.26628
0.26628
0.26628
0.26628
0.26628
0.26628
0.26628
0.26628
0.26628
0.26628
0.26628
0.0898549
0.260002
0.66962
0.66962
0.66962
0.66962
0.66962
0.66962
0.66962
0.66962
0.66962
0.66962
0.66962
0.66962
0.66962
0.66962
0.66962
0.66962
0.66962
0.66962
0.66962
0.66962
0.66962
0.66962
0.66962
0.66962
0.66962
0.66962
0.66962
0.66962
0.66962
0.66962
0.66962
0.66962
0.66962
0.66962
0.66962
0.66962
0.66962
0.66962
0.66962
0.66962
0.66962
0.66962
0.66962
0.66962
0.66962
0.66962
0.66962
0.66962
0.260002
0.260002
0.66962
0.66962
0.66962
0.66962
0.66962
0.66962
0.66962
0.66962
0.66962
0.66962
0.66962
0.66962
0.66962
0.66962
0.66962
0.66962
0.66962
0.66962
0.66962
0.66962
0.66962
0.66962
0.66962
0.66962
0.66962
0.66962
0.66962
0.66962
0.66962
0.66962
0.66962
0.66962
0.66962
0.66962
0.66962
0.66962
0.66962
0.66962
0.66962
0.66962
0.66962
0.66962
0.66962
0.66962
0.66962
0.66962
0.66962
0.66962
0.260002
0.260002
0.66962
0.66962
0.66962
0.66962
0.66962
0.66962
0.66962
0.66962
0.66962
0.66962
0.66962
0.66962
0.66962
0.66962
0.66962
0.66962
0.66962
0.66962
0.66962
0.66962
0.66962
0.66962
0.66962
0.66962
0.66962
0.66962
0.66962
0.66962
0.66962
0.66962
0.66962
0.66962
0.66962
0.66962
0.66962
0.66962
0.66962
0.66962
0.66962
0.66962
0.66962
0.66962
0.66962
0.66962
0.66962
0.66962
0.66962
0.66962
0.260002
0.260002
0.66962
0.66962
0.66962
0.66962
0.66962
0.66962
0.66962
0.66962
0.66962
0.66962
0.66962
0.66962
0.66962
0.66962
0.66962
0.66962
0.66962
0.66962
0.66962
0.66962
0.66962
0.66962
0.66962
0.66962
0.66962
0.66962
0.66962
0.66962
0.66962
0.66962
0.66962
0.66962
0.66962
0.66962
0.66962
0.66962
0.66962
0.66962
0.66962
0.66962
0.66962
0.66962
0.66962
0.66962
0.66962
0.66962
0.66962
0.66962
0.260002
0.260002
0.66962
0.66962
0.66962
0.66962
0.66962
0.66962
0.66962
0.66962
0.66962
0.66962
0.66962
0.66962
0.66962
0.66962
0.66962
0.66962
0.66962
0.66962
0.66962
0.66962
0.66962
0.66962
0.66962
0.66962
0.66962
0.66962
0.66962
0.66962
0.66962
0.66962
0.66962
0.66962
0.66962
0.66962
0.66962
0.66962
0.66962
0.66962
0.66962
0.66962
0.66962
0.66962
0.66962
0.66962
0.66962
0.66962
0.66962
0.66962
0.260002
0.260002
0.66962
0.66962
0.66962
0.66962
0.66962
0.66962
0.66962
0.66962
0.66962
0.66962
0.66962
0.66962
0.66962
0.66962
0.66962
0.66962
0.66962
0.66962
0.66962
0.66962
0.66962
0.66962
0.66962
0.66962
0.66962
0.66962
0.66962
0.66962
0.66962
0.66962
0.66962
0.66962
0.66962
0.66962
0.66962
0.66962
0.66962
0.66962
0.66962
0.66962
0.66962
0.66962
0.66962
0.66962
0.66962
0.66962
0.66962
0.66962
0.260002
0.260002
0.66962
0.66962
0.66962
0.66962
0.66962
0.66962
0.66962
0.66962
0.66962
0.66962
0.66962
0.66962
0.66962
0.66962
0.66962
0.66962
0.66962
0.66962
0.66962
0.66962
0.66962
0.66962
0.66962
0.66962
0.66962
0.66962
0.66962
0.66962
0.66962
0.66962
0.66962
0.66962
0.66962
0.66962
0.66962
0.66962
0.66962
0.66962
0.66962
0.66962
0.66962
0.66962
0.66962
0.66962
0.66962
0.66962
0.66962
0.66962
0.260002
0.260002
0.66962
0.66962
0.66962
0.66962
0.66962
0.66962
0.66962
0.66962
0.66962
0.66962
0.66962
0.66962
0.66962
0.66962
0.66962
0.66962
0.66962
0.66962
0.66962
0.66962
0.66962
0.66962
0.66962
0.66962
0.66962
0.66962
0.66962
0.66962
0.66962
0.66962
0.66962
0.66962
0.66962
0.66962
0.66962
0.66962
0.66962
0.66962
0.66962
0.66962
0.66962
0.66962
0.66962
0.66962
0.66962
0.66962
0.66962
0.66962
0.260002
0.260002
0.66962
0.66962
0.66962
0.66962
0.66962
0.66962
0.66962
0.66962
0.66962
0.66962
0.66962
0.66962
0.66962
0.66962
0.66962
0.66962
0.66962
0.66962
0.66962
0.66962
0.66962
0.66962
0.66962
0.66962
0.66962
0.66962
0.66962
0.66962
0.66962
0.66962
0.66962
0.66962
0.66962
0.66962
0.66962
0.66962
0.66962
0.66962
0.66962
0.66962
0.66962
0.66962
0.66962
0.66962
0.66962
0.66962
0.66962
0.66962
0.260002
0.260002
0.66962
0.66962
0.66962
0.66962
0.66962
0.66962
0.66962
0.66962
0.66962
0.66962
0.66962
0.66962
0.66962
0.66962
0.66962
0.66962
0.66962
0.66962
0.66962
0.66962
0.66962
0.66962
0.66962
0.66962
0.66962
0.66962
0.66962
0.66962
0.66962
0.66962
0.66962
0.66962
0.66962
0.66962
0.66962
0.66962
0.66962
0.66962
0.66962
0.66962
0.66962
0.66962
0.66962
0.66962
0.66962
0.66962
0.66962
0.66962
0.260002
0.260002
0.66962
0.66962
0.66962
0.66962
0.66962
0.66962
0.66962
0.66962
0.66962
0.66962
0.66962
0.66962
0.66962
0.66962
0.66962
0.66962
0.66962
0.66962
0.66962
0.66962
0.66962
0.66962
0.66962
0.66962
0.66962
0.66962
0.66962
0.66962
0.66962
0.66962
0.66962
0.66962
0.66962
0.66962
0.66962
0.66962
0.66962
0.66962
0.66962
0.66962
0.66962
0.66962
0.66962
0.66962
0.66962
0.66962
0.66962
0.66962
0.260002
0.260002
0.66962
0.66962
0.66962
0.66962
0.66962
0.66962
0.66962
0.66962
0.66962
0.66962
0.66962
0.66962
0.66962
0.66962
0.66962
0.66962
0.66962
0.66962
0.66962
0.66962
0.66962
0.66962
0.66962
0.66962
0.66962
0.66962
0.66962
0.66962
0.66962
0.66962
0.66962
0.66962
0.66962
0.66962
0.66962
0.66962
0.66962
0.66962
0.66962
0.66962
0.66962
0.66962
0.66962
0.66962
0.66962
0.66962
0.66962
0.66962
0.260002
0.260002
0.66962
0.66962
0.66962
0.66962
0.66962
0.66962
0.66962
0.66962
0.66962
0.66962
0.66962
0.66962
0.66962
0.66962
0.66962
0.66962
0.66962
0.66962
0.66962
0.66962
0.66962
0.66962
0.66962
0.66962
0.66962
0.66962
0.66962
0.66962
0.66962
0.66962
0.66962
0.66962
0.66962
0.66962
0.66962
0.66962
0.66962
0.66962
0.66962
0.66962
0.66962
0.66962
0.66962
0.66962
0.66962
0.66962
0.66962
0.66962
0.260002
0.260002
0.66962
0.66962
0.66962
0.66962
0.66962
0.66962
0.66962
0.66962
0.66962
0.66962
0.66962
0.66962
0.66962
0.66962
0.66962
0.66962
0.66962
0.66962
0.66962
0.66962
0.66962
0.66962
0.66962
0.66962
0.66962
0.66962
0.66962
0.66962
0.66962
0.66962
0.66962
0.66962
0.66962
0.66962
0.66962
0.66962
0.66962
0.66962
0.66962
0.66962
0.66962
0.66962
0.66962
0.66962
0.66962
0.66962
0.66962
0.66962
0.260002
0.260002
0.66962
0.66962
0.66962
0.66962
0.66962
0.66962
0.66962
0.66962
0.66962
0.66962
0.66962
0.66962
0.66962
0.66962
0.66962
0.66962
0.66962
0.66962
0.66962
0.66962
0.66962
0.66962
0.66962
0.66962
0.66962
0.66962
0.66962
0.66962
0.66962
0.66962
0.66962
0.66962
0.66962
0.66962
0.66962
0.66962
0.66962
0.66962
0.66962
0.66962
0.66962
0.66962
0.66962
0.66962
0.66962
0.66962
0.66962
0.66962
0.260002
0.0898549
0.26628
0.26628
0.26628
0.26628
0.26628
0.26628
0.26628
0.26628
0.26628
0.26628
0.26628
0.26628
0.26628
0.26628
0.26628
0.26628
0.26628
0.26628
0.26628
0.26628
0.26628
0.26628
0.26628
0.26628
0.26628
0.26628
0.26628
0.26628
0.26628
0.26628
0.26628
0.26628
0.26628
0.26628
0.26628
0.26628
0.26628
0.26628
0.26628
0.26628
0.26628
0.26628
0.26628
0.26628
0.26628
0.26628
0.26628
0.26628
0.0898549
0.0895326
0.271661
0.271661
0.271661
0.271661
0.271661
0.271661
0.271661
0.271661
0.271661
0.271661
0.271661
0.271661
0.271661
0.271661
0.271661
0.271661
0.271661
0.271661
0.271661
0.271661
0.271661
0.271661
0.271661
0.271661
0.271661
0.271661
0.271661
0.271661
0.271661
0.271661
0.271661
0.271661
0.271661
0.271661
0.271661
0.271661
0.271661
0.271661
0.271661
0.271661
0.271661
0.271661
0.271661
0.271661
0.271661
0.271661
0.271661
0.271661
0.0895326
0.267063
0.718839
0.718839
0.718839
0.718839
0.718839
0.718839
0.718839
0.718839
0.718839
0.718839
0.718839
0.718839
0.718839
0.718839
0.718839
0.718839
0.718839
0.718839
0.718839
0.718839
0.718839
0.718839
0.718839
0.718839
0.718839
0.718839
0.718839
0.718839
0.718839
0.718839
0.718839
0.718839
0.718839
0.718839
0.718839
0.718839
0.718839
0.718839
0.718839
0.718839
0.718839
0.718839
0.718839
0.718839
0.718839
0.718839
0.718839
0.718839
0.267063
0.267063
0.718839
0.718839
0.718839
0.718839
0.718839
0.718839
0.718839
0.718839
0.718839
0.718839
0.718839
0.718839
0.718839
0.718839
0.718839
0.718839
0.718839
0.718839
0.718839
0.718839
0.718839
0.718839
0.718839
0.718839
0.718839
0.718839
0.718839
0.718839
0.718839
0.718839
0.718839
0.718839
0.718839
0.718839
0.718839
0.718839
0.718839
0.718839
0.718839
0.718839
0.718839
0.718839
0.718839
0.718839
0.718839
0.718839
0.718839
0.718839
0.267063
0.267063
0.718839
0.718839
0.718839
0.718839
0.718839
0.718839
0.718839
0.718839
0.718839
0.718839
0.718839
0.718839
0.718839
0.718839
0.718839
0.718839
0.718839
0.718839
0.718839
0.718839
0.718839
0.718839
0.718839
0.718839
0.718839
0.718839
0.718839
0.718839
0.718839
0.718839
0.718839
0.718839
0.718839
0.718839
0.718839
0.718839
0.718839
0.718839
0.718839
0.718839
0.718839
0.718839
0.718839
0.718839
0.718839
0.718839
0.718839
0.718839
0.267063
0.267063
0.718839
0.718839
0.718839
0.718839
0.718839
0.718839
0.718839
0.718839
0.718839
0.718839
0.718839
0.718839
0.718839
0.718839
0.718839
0.718839
0.718839
0.718839
0.718839
0.718839
0.718839
0.718839
0.718839
0.718839
0.718839
0.718839
0.718839
0.718839
0.718839
0.718839
0.718839
0.718839
0.718839
0.718839
0.718839
0.718839
0.718839
0.718839
0.718839
0.718839
0.718839
0.718839
0.718839
0.718839
0.718839
0.718839
0.718839
0.718839
0.267063
0.267063
0.718839
0.718839
0.718839
0.718839
0.718839
0.718839
0.718839
0.718839
0.718839
0.718839
0.718839
0.718839
0.718839
0.718839
0.718839
0.718839
0.718839
0.718839
0.718839
0.718839
0.718839
0.718839
0.718839
0.718839
0.718839
0.718839
0.718839
0.718839
0.718839
0.718839
0.718839
0.718839
0.718839
0.718839
0.718839
0.718839
0.718839
0.718839
0.718839
0.718839
0.718839
0.718839
0.718839
0.718839
0.718839
0.718839
0.718839
0.718839
0.267063
0.267063
0.718839
0.718839
0.718839
0.718839
0.718839
0.718839
0.718839
0.718839
0.718839
0.718839
0.718839
0.718839
0.718839
0.718839
0.718839
0.718839
0.718839
0.718839
0.718839
0.718839
0.718839
0.718839
0.718839
0.718839
0.718839
0.718839
0.718839
0.718839
0.718839
0.718839
0.718839
0.718839
0.718839
0.718839
0.718839
0.718839
0.718839
0.718839
0.718839
0.718839
0.718839
0.718839
0.718839
0.718839
0.718839
0.718839
0.718839
0.718839
0.267063
0.267063
0.718839
0.718839
0.718839
0.718839
0.718839
0.718839
0.718839
0.718839
0.718839
0.718839
0.718839
0.718839
0.718839
0.718839
0.718839
0.718839
0.718839
0.718839
0.718839
0.718839
0.718839
0.718839
0.718839
0.718839
0.718839
0.718839
0.718839
0.718839
0.718839
0.718839
0.718839
0.718839
0.718839
0.718839
0.718839
0.718839
0.718839
0.718839
0.718839
0.718839
0.718839
0.718839
0.718839
0.718839
0.718839
0.718839
0.718839
0.718839
0.267063
0.267063
0.718839
0.718839
0.718839
0.718839
0.718839
0.718839
0.718839
0.718839
0.718839
0.718839
0.718839
0.718839
0.718839
0.718839
0.718839
0.718839
0.718839
0.718839
0.718839
0.718839
0.718839
0.718839
0.718839
0.718839
0.718839
0.718839
0.718839
0.718839
0.718839
0.718839
0.718839
0.718839
0.718839
0.718839
0.718839
0.718839
0.718839
0.718839
0.718839
0.718839
0.718839
0.718839
0.718839
0.718839
0.718839
0.718839
0.718839
0.718839
0.267063
0.267063
0.718839
0.718839
0.718839
0.718839
0.718839
0.718839
0.718839
0.718839
0.718839
0.718839
0.718839
0.718839
0.718839
0.718839
0.718839
0.718839
0.718839
0.718839
0.718839
0.718839
0.718839
0.718839
0.718839
0.718839
0.718839
0.718839
0.718839
0.718839
0.718839
0.718839
0.718839
0.718839
0.718839
0.718839
0.718839
0.718839
0.718839
0.718839
0.718839
0.718839
0.718839
0.718839
0.718839
0.718839
0.718839
0.718839
0.718839
0.718839
0.267063
0.267063
0.718839
0.718839
0.718839
0.718839
0.718839
0.718839
0.718839
0.718839
0.718839
0.718839
0.718839
0.718839
0.718839
0.718839
0.718839
0.718839
0.718839
0.718839
0.718839
0.718839
0.718839
0.718839
0.718839
0.718839
0.718839
0.718839
0.718839
0.718839
0.718839
0.718839
0.718839
0.718839
0.718839
0.718839
0.718839
0.718839
0.718839
0.718839
0.718839
0.718839
0.718839
0.718839
0.718839
0.718839
0.718839
0.718839
0.718839
0.718839
0.267063
0.267063
0.718839
0.718839
0.718839
0.718839
0.718839
0.718839
0.718839
0.718839
0.718839
0.718839
0.718839
0.718839
0.718839
0.718839
0.718839
0.718839
0.718839
0.718839
0.718839
0.718839
0.718839
0.718839
0.718839
0.718839
0.718839
0.718839
0.718839
0.718839
0.718839
0.718839
0.718839
0.718839
0.718839
0.718839
0.718839
0.718839
0.718839
0.718839
0.718839
0.718839
0.718839
0.718839
0.718839
0.718839
0.718839
0.718839
0.718839
0.718839
0.267063
0.267063
0.718839
0.718839
0.718839
0.718839
0.718839
0.718839
0.718839
0.718839
0.718839
0.718839
0.718839
0.718839
0.718839
0.718839
0.718839
0.718839
0.718839
0.718839
0.718839
0.718839
0.718839
0.718839
0.718839
0.718839
0.718839
0.718839
0.718839
0.718839
0.718839
0.718839
0.718839
0.718839
0.718839
0.718839
0.718839
0.718839
0.718839
0.718839
0.718839
0.718839
0.718839
0.718839
0.718839
0.718839
0.718839
0.718839
0.718839
0.718839
0.267063
0.267063
0.718839
0.718839
0.718839
0.718839
0.718839
0.718839
0.718839
0.718839
0.718839
0.718839
0.718839
0.718839
0.718839
0.718839
0.718839
0.718839
0.718839
0.718839
0.718839
0.718839
0.718839
0.718839
0.718839
0.718839
0.718839
0.718839
0.718839
0.718839
0.718839
0.718839
0.718839
0.718839
0.718839
0.718839
0.718839
0.718839
0.718839
0.718839
0.718839
0.718839
0.718839
0.718839
0.718839
0.718839
0.718839
0.718839
0.718839
0.718839
0.267063
0.267063
0.718839
0.718839
0.718839
0.718839
0.718839
0.718839
0.718839
0.718839
0.718839
0.718839
0.718839
0.718839
0.718839
0.718839
0.718839
0.718839
0.718839
0.718839
0.718839
0.718839
0.718839
0.718839
0.718839
0.718839
0.718839
0.718839
0.718839
0.718839
0.718839
0.718839
0.718839
0.718839
0.718839
0.718839
0.718839
0.718839
0.718839
0.718839
0.718839
0.718839
0.718839
0.718839
0.718839
0.718839
0.718839
0.718839
0.718839
0.718839
0.267063
0.267063
0.718839
0.718839
0.718839
0.718839
0.718839
0.718839
0.718839
0.718839
0.718839
0.718839
0.718839
0.718839
0.718839
0.718839
0.718839
0.718839
0.718839
0.718839
0.718839
0.718839
0.718839
0.718839
0.718839
0.718839
0.718839
0.718839
0.718839
0.718839
0.718839
0.718839
0.718839
0.718839
0.718839
0.718839
0.718839
0.718839
0.718839
0.718839
0.718839
0.718839
0.718839
0.718839
0.718839
0.718839
0.718839
0.718839
0.718839
0.718839
0.267063
0.0895326
0.271661
0.271661
0.271661
0.271661
0.271661
0.271661
0.271661
0.271661
0.271661
0.271661
0.271661
0.271661
0.271661
0.271661
0.271661
0.271661
0.271661
0.271661
0.271661
0.271661
0.271661
0.271661
0.271661
0.271661
0.271661
0.271661
0.271661
0.271661
0.271661
0.271661
0.271661
0.271661
0.271661
0.271661
0.271661
0.271661
0.271661
0.271661
0.271661
0.271661
0.271661
0.271661
0.271661
0.271661
0.271661
0.271661
0.271661
0.271661
0.0895326
0.0895326
0.271661
0.271661
0.271661
0.271661
0.271661
0.271661
0.271661
0.271661
0.271661
0.271661
0.271661
0.271661
0.271661
0.271661
0.271661
0.271661
0.271661
0.271661
0.271661
0.271661
0.271661
0.271661
0.271661
0.271661
0.271661
0.271661
0.271661
0.271661
0.271661
0.271661
0.271661
0.271661
0.271661
0.271661
0.271661
0.271661
0.271661
0.271661
0.271661
0.271661
0.271661
0.271661
0.271661
0.271661
0.271661
0.271661
0.271661
0.271661
0.0895326
0.267063
0.718839
0.718839
0.718839
0.718839
0.718839
0.718839
0.718839
0.718839
0.718839
0.718839
0.718839
0.718839
0.718839
0.718839
0.718839
0.718839
0.718839
0.718839
0.718839
0.718839
0.718839
0.718839
0.718839
0.718839
0.718839
0.718839
0.718839
0.718839
0.718839
0.718839
0.718839
0.718839
0.718839
0.718839
0.718839
0.718839
0.718839
0.718839
0.718839
0.718839
0.718839
0.718839
0.718839
0.718839
0.718839
0.718839
0.718839
0.718839
0.267063
0.267063
0.718839
0.718839
0.718839
0.718839
0.718839
0.718839
0.718839
0.718839
0.718839
0.718839
0.718839
0.718839
0.718839
0.718839
0.718839
0.718839
0.718839
0.718839
0.718839
0.718839
0.718839
0.718839
0.718839
0.718839
0.718839
0.718839
0.718839
0.718839
0.718839
0.718839
0.718839
0.718839
0.718839
0.718839
0.718839
0.718839
0.718839
0.718839
0.718839
0.718839
0.718839
0.718839
0.718839
0.718839
0.718839
0.718839
0.718839
0.718839
0.267063
0.267063
0.718839
0.718839
0.718839
0.718839
0.718839
0.718839
0.718839
0.718839
0.718839
0.718839
0.718839
0.718839
0.718839
0.718839
0.718839
0.718839
0.718839
0.718839
0.718839
0.718839
0.718839
0.718839
0.718839
0.718839
0.718839
0.718839
0.718839
0.718839
0.718839
0.718839
0.718839
0.718839
0.718839
0.718839
0.718839
0.718839
0.718839
0.718839
0.718839
0.718839
0.718839
0.718839
0.718839
0.718839
0.718839
0.718839
0.718839
0.718839
0.267063
0.267063
0.718839
0.718839
0.718839
0.718839
0.718839
0.718839
0.718839
0.718839
0.718839
0.718839
0.718839
0.718839
0.718839
0.718839
0.718839
0.718839
0.718839
0.718839
0.718839
0.718839
0.718839
0.718839
0.718839
0.718839
0.718839
0.718839
0.718839
0.718839
0.718839
0.718839
0.718839
0.718839
0.718839
0.718839
0.718839
0.718839
0.718839
0.718839
0.718839
0.718839
0.718839
0.718839
0.718839
0.718839
0.718839
0.718839
0.718839
0.718839
0.267063
0.267063
0.718839
0.718839
0.718839
0.718839
0.718839
0.718839
0.718839
0.718839
0.718839
0.718839
0.718839
0.718839
0.718839
0.718839
0.718839
0.718839
0.718839
0.718839
0.718839
0.718839
0.718839
0.718839
0.718839
0.718839
0.718839
0.718839
0.718839
0.718839
0.718839
0.718839
0.718839
0.718839
0.718839
0.718839
0.718839
0.718839
0.718839
0.718839
0.718839
0.718839
0.718839
0.718839
0.718839
0.718839
0.718839
0.718839
0.718839
0.718839
0.267063
0.267063
0.718839
0.718839
0.718839
0.718839
0.718839
0.718839
0.718839
0.718839
0.718839
0.718839
0.718839
0.718839
0.718839
0.718839
0.718839
0.718839
0.718839
0.718839
0.718839
0.718839
0.718839
0.718839
0.718839
0.718839
0.718839
0.718839
0.718839
0.718839
0.718839
0.718839
0.718839
0.718839
0.718839
0.718839
0.718839
0.718839
0.718839
0.718839
0.718839
0.718839
0.718839
0.718839
0.718839
0.718839
0.718839
0.718839
0.718839
0.718839
0.267063
0.267063
0.718839
0.718839
0.718839
0.718839
0.718839
0.718839
0.718839
0.718839
0.718839
0.718839
0.718839
0.718839
0.718839
0.718839
0.718839
0.718839
0.718839
0.718839
0.718839
0.718839
0.718839
0.718839
0.718839
0.718839
0.718839
0.718839
0.718839
0.718839
0.718839
0.718839
0.718839
0.718839
0.718839
0.718839
0.718839
0.718839
0.718839
0.718839
0.718839
0.718839
0.718839
0.718839
0.718839
0.718839
0.718839
0.718839
0.718839
0.718839
0.267063
0.267063
0.718839
0.718839
0.718839
0.718839
0.718839
0.718839
0.718839
0.718839
0.718839
0.718839
0.718839
0.718839
0.718839
0.718839
0.718839
0.718839
0.718839
0.718839
0.718839
0.718839
0.718839
0.718839
0.718839
0.718839
0.718839
0.718839
0.718839
0.718839
0.718839
0.718839
0.718839
0.718839
0.718839
0.718839
0.718839
0.718839
0.718839
0.718839
0.718839
0.718839
0.718839
0.718839
0.718839
0.718839
0.718839
0.718839
0.718839
0.718839
0.267063
0.267063
0.718839
0.718839
0.718839
0.718839
0.718839
0.718839
0.718839
0.718839
0.718839
0.718839
0.718839
0.718839
0.718839
0.718839
0.718839
0.718839
0.718839
0.718839
0.718839
0.718839
0.718839
0.718839
0.718839
0.718839
0.718839
0.718839
0.718839
0.718839
0.718839
0.718839
0.718839
0.718839
0.718839
0.718839
0.718839
0.718839
0.718839
0.718839
0.718839
0.718839
0.718839
0.718839
0.718839
0.718839
0.718839
0.718839
0.718839
0.718839
0.267063
0.267063
0.718839
0.718839
0.718839
0.718839
0.718839
0.718839
0.718839
0.718839
0.718839
0.718839
0.718839
0.718839
0.718839
0.718839
0.718839
0.718839
0.718839
0.718839
0.718839
0.718839
0.718839
0.718839
0.718839
0.718839
0.718839
0.718839
0.718839
0.718839
0.718839
0.718839
0.718839
0.718839
0.718839
0.718839
0.718839
0.718839
0.718839
0.718839
0.718839
0.718839
0.718839
0.718839
0.718839
0.718839
0.718839
0.718839
0.718839
0.718839
0.267063
0.267063
0.718839
0.718839
0.718839
0.718839
0.718839
0.718839
0.718839
0.718839
0.718839
0.718839
0.718839
0.718839
0.718839
0.718839
0.718839
0.718839
0.718839
0.718839
0.718839
0.718839
0.718839
0.718839
0.718839
0.718839
0.718839
0.718839
0.718839
0.718839
0.718839
0.718839
0.718839
0.718839
0.718839
0.718839
0.718839
0.718839
0.718839
0.718839
0.718839
0.718839
0.718839
0.718839
0.718839
0.718839
0.718839
0.718839
0.718839
0.718839
0.267063
0.267063
0.718839
0.718839
0.718839
0.718839
0.718839
0.718839
0.718839
0.718839
0.718839
0.718839
0.718839
0.718839
0.718839
0.718839
0.718839
0.718839
0.718839
0.718839
0.718839
0.718839
0.718839
0.718839
0.718839
0.718839
0.718839
0.718839
0.718839
0.718839
0.718839
0.718839
0.718839
0.718839
0.718839
0.718839
0.718839
0.718839
0.718839
0.718839
0.718839
0.718839
0.718839
0.718839
0.718839
0.718839
0.718839
0.718839
0.718839
0.718839
0.267063
0.267063
0.718839
0.718839
0.718839
0.718839
0.718839
0.718839
0.718839
0.718839
0.718839
0.718839
0.718839
0.718839
0.718839
0.718839
0.718839
0.718839
0.718839
0.718839
0.718839
0.718839
0.718839
0.718839
0.718839
0.718839
0.718839
0.718839
0.718839
0.718839
0.718839
0.718839
0.718839
0.718839
0.718839
0.718839
0.718839
0.718839
0.718839
0.718839
0.718839
0.718839
0.718839
0.718839
0.718839
0.718839
0.718839
0.718839
0.718839
0.718839
0.267063
0.267063
0.718839
0.718839
0.718839
0.718839
0.718839
0.718839
0.718839
0.718839
0.718839
0.718839
0.718839
0.718839
0.718839
0.718839
0.718839
0.718839
0.718839
0.718839
0.718839
0.718839
0.718839
0.718839
0.718839
0.718839
0.718839
0.718839
0.718839
0.718839
0.718839
0.718839
0.718839
0.718839
0.718839
0.718839
0.718839
0.718839
0.718839
0.718839
0.718839
0.718839
0.718839
0.718839
0.718839
0.718839
0.718839
0.718839
0.718839
0.718839
0.267063
0.267063
0.718839
0.718839
0.718839
0.718839
0.718839
0.718839
0.718839
0.718839
0.718839
0.718839
0.718839
0.718839
0.718839
0.718839
0.718839
0.718839
0.718839
0.718839
0.718839
0.718839
0.718839
0.718839
0.718839
0.718839
0.718839
0.718839
0.718839
0.718839
0.718839
0.718839
0.718839
0.718839
0.718839
0.718839
0.718839
0.718839
0.718839
0.718839
0.718839
0.718839
0.718839
0.718839
0.718839
0.718839
0.718839
0.718839
0.718839
0.718839
0.267063
0.0895326
0.271661
0.271661
0.271661
0.271661
0.271661
0.271661
0.271661
0.271661
0.271661
0.271661
0.271661
0.271661
0.271661
0.271661
0.271661
0.271661
0.271661
0.271661
0.271661
0.271661
0.271661
0.271661
0.271661
0.271661
0.271661
0.271661
0.271661
0.271661
0.271661
0.271661
0.271661
0.271661
0.271661
0.271661
0.271661
0.271661
0.271661
0.271661
0.271661
0.271661
0.271661
0.271661
0.271661
0.271661
0.271661
0.271661
0.271661
0.271661
0.0895326
0.0895326
0.271661
0.271661
0.271661
0.271661
0.271661
0.271661
0.271661
0.271661
0.271661
0.271661
0.271661
0.271661
0.271661
0.271661
0.271661
0.271661
0.271661
0.271661
0.271661
0.271661
0.271661
0.271661
0.271661
0.271661
0.271661
0.271661
0.271661
0.271661
0.271661
0.271661
0.271661
0.271661
0.271661
0.271661
0.271661
0.271661
0.271661
0.271661
0.271661
0.271661
0.271661
0.271661
0.271661
0.271661
0.271661
0.271661
0.271661
0.271661
0.0895326
0.267063
0.718839
0.718839
0.718839
0.718839
0.718839
0.718839
0.718839
0.718839
0.718839
0.718839
0.718839
0.718839
0.718839
0.718839
0.718839
0.718839
0.718839
0.718839
0.718839
0.718839
0.718839
0.718839
0.718839
0.718839
0.718839
0.718839
0.718839
0.718839
0.718839
0.718839
0.718839
0.718839
0.718839
0.718839
0.718839
0.718839
0.718839
0.718839
0.718839
0.718839
0.718839
0.718839
0.718839
0.718839
0.718839
0.718839
0.718839
0.718839
0.267063
0.267063
0.718839
0.718839
0.718839
0.718839
0.718839
0.718839
0.718839
0.718839
0.718839
0.718839
0.718839
0.718839
0.718839
0.718839
0.718839
0.718839
0.718839
0.718839
0.718839
0.718839
0.718839
0.718839
0.718839
0.718839
0.718839
0.718839
0.718839
0.718839
0.718839
0.718839
0.718839
0.718839
0.718839
0.718839
0.718839
0.718839
0.718839
0.718839
0.718839
0.718839
0.718839
0.718839
0.718839
0.718839
0.718839
0.718839
0.718839
0.718839
0.267063
0.267063
0.718839
0.718839
0.718839
0.718839
0.718839
0.718839
0.718839
0.718839
0.718839
0.718839
0.718839
0.718839
0.718839
0.718839
0.718839
0.718839
0.718839
0.718839
0.718839
0.718839
0.718839
0.718839
0.718839
0.718839
0.718839
0.718839
0.718839
0.718839
0.718839
0.718839
0.718839
0.718839
0.718839
0.718839
0.718839
0.718839
0.718839
0.718839
0.718839
0.718839
0.718839
0.718839
0.718839
0.718839
0.718839
0.718839
0.718839
0.718839
0.267063
0.267063
0.718839
0.718839
0.718839
0.718839
0.718839
0.718839
0.718839
0.718839
0.718839
0.718839
0.718839
0.718839
0.718839
0.718839
0.718839
0.718839
0.718839
0.718839
0.718839
0.718839
0.718839
0.718839
0.718839
0.718839
0.718839
0.718839
0.718839
0.718839
0.718839
0.718839
0.718839
0.718839
0.718839
0.718839
0.718839
0.718839
0.718839
0.718839
0.718839
0.718839
0.718839
0.718839
0.718839
0.718839
0.718839
0.718839
0.718839
0.718839
0.267063
0.267063
0.718839
0.718839
0.718839
0.718839
0.718839
0.718839
0.718839
0.718839
0.718839
0.718839
0.718839
0.718839
0.718839
0.718839
0.718839
0.718839
0.718839
0.718839
0.718839
0.718839
0.718839
0.718839
0.718839
0.718839
0.718839
0.718839
0.718839
0.718839
0.718839
0.718839
0.718839
0.718839
0.718839
0.718839
0.718839
0.718839
0.718839
0.718839
0.718839
0.718839
0.718839
0.718839
0.718839
0.718839
0.718839
0.718839
0.718839
0.718839
0.267063
0.267063
0.718839
0.718839
0.718839
0.718839
0.718839
0.718839
0.718839
0.718839
0.718839
0.718839
0.718839
0.718839
0.718839
0.718839
0.718839
0.718839
0.718839
0.718839
0.718839
0.718839
0.718839
0.718839
0.718839
0.718839
0.718839
0.718839
0.718839
0.718839
0.718839
0.718839
0.718839
0.718839
0.718839
0.718839
0.718839
0.718839
0.718839
0.718839
0.718839
0.718839
0.718839
0.718839
0.718839
0.718839
0.718839
0.718839
0.718839
0.718839
0.267063
0.267063
0.718839
0.718839
0.718839
0.718839
0.718839
0.718839
0.718839
0.718839
0.718839
0.718839
0.718839
0.718839
0.718839
0.718839
0.718839
0.718839
0.718839
0.718839
0.718839
0.718839
0.718839
0.718839
0.718839
0.718839
0.718839
0.718839
0.718839
0.718839
0.718839
0.718839
0.718839
0.718839
0.718839
0.718839
0.718839
0.718839
0.718839
0.718839
0.718839
0.718839
0.718839
0.718839
0.718839
0.718839
0.718839
0.718839
0.718839
0.718839
0.267063
0.267063
0.718839
0.718839
0.718839
0.718839
0.718839
0.718839
0.718839
0.718839
0.718839
0.718839
0.718839
0.718839
0.718839
0.718839
0.718839
0.718839
0.718839
0.718839
0.718839
0.718839
0.718839
0.718839
0.718839
0.718839
0.718839
0.718839
0.718839
0.718839
0.718839
0.718839
0.718839
0.718839
0.718839
0.718839
0.718839
0.718839
0.718839
0.718839
0.718839
0.718839
0.718839
0.718839
0.718839
0.718839
0.718839
0.718839
0.718839
0.718839
0.267063
0.267063
0.718839
0.718839
0.718839
0.718839
0.718839
0.718839
0.718839
0.718839
0.718839
0.718839
0.718839
0.718839
0.718839
0.718839
0.718839
0.718839
0.718839
0.718839
0.718839
0.718839
0.718839
0.718839
0.718839
0.718839
0.718839
0.718839
0.718839
0.718839
0.718839
0.718839
0.718839
0.718839
0.718839
0.718839
0.718839
0.718839
0.718839
0.718839
0.718839
0.718839
0.718839
0.718839
0.718839
0.718839
0.718839
0.718839
0.718839
0.718839
0.267063
0.267063
0.718839
0.718839
0.718839
0.718839
0.718839
0.718839
0.718839
0.718839
0.718839
0.718839
0.718839
0.718839
0.718839
0.718839
0.718839
0.718839
0.718839
0.718839
0.718839
0.718839
0.718839
0.718839
0.718839
0.718839
0.718839
0.718839
0.718839
0.718839
0.718839
0.718839
0.718839
0.718839
0.718839
0.718839
0.718839
0.718839
0.718839
0.718839
0.718839
0.718839
0.718839
0.718839
0.718839
0.718839
0.718839
0.718839
0.718839
0.718839
0.267063
0.267063
0.718839
0.718839
0.718839
0.718839
0.718839
0.718839
0.718839
0.718839
0.718839
0.718839
0.718839
0.718839
0.718839
0.718839
0.718839
0.718839
0.718839
0.718839
0.718839
0.718839
0.718839
0.718839
0.718839
0.718839
0.718839
0.718839
0.718839
0.718839
0.718839
0.718839
0.718839
0.718839
0.718839
0.718839
0.718839
0.718839
0.718839
0.718839
0.718839
0.718839
0.718839
0.718839
0.718839
0.718839
0.718839
0.718839
0.718839
0.718839
0.267063
0.267063
0.718839
0.718839
0.718839
0.718839
0.718839
0.718839
0.718839
0.718839
0.718839
0.718839
0.718839
0.718839
0.718839
0.718839
0.718839
0.718839
0.718839
0.718839
0.718839
0.718839
0.718839
0.718839
0.718839
0.718839
0.718839
0.718839
0.718839
0.718839
0.718839
0.718839
0.718839
0.718839
0.718839
0.718839
0.718839
0.718839
0.718839
0.718839
0.718839
0.718839
0.718839
0.718839
0.718839
0.718839
0.718839
0.718839
0.718839
0.718839
0.267063
0.267063
0.718839
0.718839
0.718839
0.718839
0.718839
0.718839
0.718839
0.718839
0.718839
0.718839
0.718839
0.718839
0.718839
0.718839
0.718839
0.718839
0.718839
0.718839
0.718839
0.718839
0.718839
0.718839
0.718839
0.718839
0.718839
0.718839
0.718839
0.718839
0.718839
0.718839
0.718839
0.718839
0.718839
0.718839
0.718839
0.718839
0.718839
0.718839
0.718839
0.718839
0.718839
0.718839
0.718839
0.718839
0.718839
0.718839
0.718839
0.718839
0.267063
0.267063
0.718839
0.718839
0.718839
0.718839
0.718839
0.718839
0.718839
0.718839
0.718839
0.718839
0.718839
0.718839
0.718839
0.718839
0.718839
0.718839
0.718839
0.718839
0.718839
0.718839
0.718839
0.718839
0.718839
0.718839
0.718839
0.718839
0.718839
0.718839
0.718839
0.718839
0.718839
0.718839
0.718839
0.718839
0.718839
0.718839
0.718839
0.718839
0.718839
0.718839
0.718839
0.718839
0.718839
0.718839
0.718839
0.718839
0.718839
0.718839
0.267063
0.267063
0.718839
0.718839
0.718839
0.718839
0.718839
0.718839
0.718839
0.718839
0.718839
0.718839
0.718839
0.718839
0.718839
0.718839
0.718839
0.718839
0.718839
0.718839
0.718839