/*--------------------------------*- C++ -*----------------------------------*\
| =========                 |                                                 |
| \\      /  F ield         | OpenFOAM: The Open Source CFD Toolbox           |
|  \\    /   O peration     | Version:  2506                                  |
|   \\  /    A nd           | Website:  www.openfoam.com                      |
|    \\/     M anipulation  |                                                 |
\*---------------------------------------------------------------------------*/
FoamFile
{
    version     2.0;
    format      ascii;
    arch        "LSB;label=32;scalar=64";
    class       volScalarField;
    location    "constant";
    object      skewness;
}
// * * * * * * * * * * * * * * * * * * * * * * * * * * * * * * * * * * * * * //

dimensions      [0 0 0 0 0 0 0];

internalField   nonuniform List<scalar> 
17000
(
6.59752e-15
8.90439e-15
4.48575e-15
4.45206e-15
4.48575e-15
8.97205e-15
4.45206e-15
2.17833e-15
2.24287e-15
2.24287e-15
2.24287e-15
1.06082e-15
1.12144e-15
1.12144e-15
4.85524e-16
5.60719e-16
3.61235e-16
2.64784e-16
5.35981e-16
2.99069e-16
5.15114e-16
1.12144e-15
1.06494e-15
6.66215e-15
4.48575e-15
2.18045e-15
4.48575e-15
4.35772e-15
2.22603e-15
4.48684e-15
4.48684e-15
4.48575e-15
4.45206e-15
8.8383e-15
4.42023e-15
6.68099e-15
8.97205e-15
1.7943e-14
1.78077e-14
8.71384e-15
8.9715e-15
8.95633e-15
8.9715e-15
8.9715e-15
1.7943e-14
8.9715e-15
2.69145e-14
1.79094e-14
4.46857e-15
1.7943e-14
4.48575e-15
6.08772e-15
4.05848e-15
8.9715e-15
4.05848e-15
4.46857e-15
4.48575e-15
2.22603e-15
1.10526e-15
2.24287e-15
9.56975e-16
1.10526e-15
1.12144e-15
7.37612e-16
5.6948e-16
5.91073e-16
5.91073e-16
5.79662e-16
9.40679e-16
9.60493e-16
5.71933e-16
1.48857e-15
1.12144e-15
4.05945e-15
2.21053e-15
4.05848e-15
6.26362e-15
2.22603e-15
4.05848e-15
4.05848e-15
2.21053e-15
8.9715e-15
8.95415e-15
8.95415e-15
4.05848e-15
8.9715e-15
6.71133e-15
8.95415e-15
8.71331e-15
4.48575e-15
8.92264e-15
1.34587e-14
8.9715e-15
4.49013e-15
8.9715e-15
8.9715e-15
4.48575e-15
1.79094e-14
4.46857e-15
2.19061e-14
8.93932e-15
4.48575e-15
4.05848e-15
2.22603e-15
1.34572e-14
4.45641e-15
4.48575e-15
2.22603e-15
1.91395e-15
4.05848e-15
1.12702e-15
4.48684e-15
1.12144e-15
9.43619e-16
1.12144e-15
5.71933e-16
3.91814e-16
8.41078e-16
5.60719e-16
5.60719e-16
1.12582e-15
1.13254e-15
2.25164e-15
2.24287e-15
3.33107e-15
1.10526e-15
4.45206e-15
5.71933e-16
4.05848e-15
6.72862e-15
8.9715e-15
4.46857e-15
8.95415e-15
8.95415e-15
8.11695e-15
6.69449e-15
4.44056e-15
4.48575e-15
8.9715e-15
8.9715e-15
4.46857e-15
1.34587e-14
4.47293e-15
8.28854e-15
8.9715e-15
8.92046e-15
8.95415e-15
8.9715e-15
8.48654e-15
1.78912e-14
1.1163e-14
8.9715e-15
3.8279e-15
2.26284e-15
4.48575e-15
6.66215e-15
4.46857e-15
3.76272e-15
2.28773e-15
3.76272e-15
2.26508e-15
2.97338e-15
1.68301e-15
1.7158e-15
1.7158e-15
5.71933e-16
5.8087e-16
1.6985e-15
2.28773e-15
2.28773e-15
2.28773e-15
1.13254e-15
2.25164e-15
2.26508e-15
6.72862e-15
1.6985e-15
6.69449e-15
1.91571e-15
4.40653e-15
6.26362e-15
4.48575e-15
4.48575e-15
8.95415e-15
6.69449e-15
8.9715e-15
1.34572e-14
4.44056e-15
8.9715e-15
8.48654e-15
8.9715e-15
1.29519e-14
8.95415e-15
8.9715e-15
1.78743e-14
1.7943e-14
8.92046e-15
1.7943e-14
8.9715e-15
8.11695e-15
1.78912e-14
1.1163e-14
8.9715e-15
4.48575e-15
6.26429e-15
8.9715e-15
6.66215e-15
4.46857e-15
4.48575e-15
1.14833e-15
1.88283e-15
2.8174e-15
1.14387e-15
1.66554e-15
1.68508e-15
1.12144e-15
1.14387e-15
5.91073e-16
4.20539e-16
8.41078e-16
1.12144e-15
1.14387e-15
2.0208e-15
2.24287e-15
1.14387e-15
2.22603e-15
1.71878e-15
6.69449e-15
3.8279e-15
4.40653e-15
8.11695e-15
4.40653e-15
2.24287e-15
6.72862e-15
4.45206e-15
1.1163e-14
6.67809e-15
8.88812e-15
4.46857e-15
1.29519e-14
8.11695e-15
4.48575e-15
4.46857e-15
8.9715e-15
1.78743e-14
1.7943e-14
8.92046e-15
1.34572e-14
1.7943e-14
8.48654e-15
1.78912e-14
8.11695e-15
8.88812e-15
8.9715e-15
3.76272e-15
6.64953e-15
4.40653e-15
4.43623e-15
4.48575e-15
3.41383e-15
3.76272e-15
3.4316e-15
4.57546e-15
4.57546e-15
2.24287e-15
1.89382e-15
2.06073e-15
1.14461e-15
1.93861e-15
2.28773e-15
1.93683e-15
2.2702e-15
2.28773e-15
6.72862e-15
4.48575e-15
2.28773e-15
4.49013e-15
4.48575e-15
2.29667e-15
4.40653e-15
4.48575e-15
1.34572e-14
4.42536e-15
7.6558e-15
4.45206e-15
1.1163e-14
8.89029e-15
1.11302e-14
8.9715e-15
2.26284e-15
8.97205e-15
8.97369e-15
8.97205e-15
8.97205e-15
8.93714e-15
1.79256e-14
8.9715e-15
8.9715e-15
8.9715e-15
8.97205e-15
1.62339e-14
8.9715e-15
8.90413e-15
1.88136e-15
3.78764e-15
6.64953e-15
4.53016e-15
3.76272e-15
4.45641e-15
4.53016e-15
2.26619e-15
2.28997e-15
1.88136e-15
2.28773e-15
1.66213e-15
2.28773e-15
2.28773e-15
2.29667e-15
2.29667e-15
2.2702e-15
1.93861e-15
2.23923e-15
2.23923e-15
4.48575e-15
3.36431e-15
3.33107e-15
4.49013e-15
2.26508e-15
2.28997e-15
7.6558e-15
4.48575e-15
5.87757e-15
8.88812e-15
6.71424e-15
4.48575e-15
1.11319e-14
8.89029e-15
1.11302e-14
4.49013e-15
4.48575e-15
1.18885e-14
1.18888e-14
4.45206e-15
8.9715e-15
7.48268e-15
8.9715e-15
7.6558e-15
8.9715e-15
1.25272e-14
7.6558e-15
8.93714e-15
4.42105e-15
8.93714e-15
6.72935e-15
4.43623e-15
6.67809e-15
4.45206e-15
4.48575e-15
4.53016e-15
3.39699e-15
2.26508e-15
2.28773e-15
2.22603e-15
1.66554e-15
2.26508e-15
2.28773e-15
5.60719e-16
1.14833e-15
9.71973e-16
1.89382e-15
1.8953e-15
2.28773e-15
1.66554e-15
2.26508e-15
4.43623e-15
3.76272e-15
3.35305e-15
3.34724e-15
2.24287e-15
4.48575e-15
4.48575e-15
4.42105e-15
8.88812e-15
7.6558e-15
8.9715e-15
8.88812e-15
8.88812e-15
1.34572e-14
8.11695e-15
8.95415e-15
2.28997e-15
2.69145e-14
7.65624e-15
4.45206e-15
8.9715e-15
1.34572e-14
8.9715e-15
8.9715e-15
8.9715e-15
8.95415e-15
8.9715e-15
8.92264e-15
1.11816e-14
5.64457e-15
4.57546e-15
7.52544e-15
4.57546e-15
4.48575e-15
2.26508e-15
2.26508e-15
2.28773e-15
2.28997e-15
2.26508e-15
2.28773e-15
1.89382e-15
2.28773e-15
2.06272e-15
2.29667e-15
2.29667e-15
2.26284e-15
4.57546e-15
3.87365e-15
3.87365e-15
4.48575e-15
4.43623e-15
4.54483e-15
5.70138e-15
5.70138e-15
4.54483e-15
4.57546e-15
4.48575e-15
4.57546e-15
6.69739e-15
6.69449e-15
8.9715e-15
7.52544e-15
8.88812e-15
4.54483e-15
4.57658e-15
8.95415e-15
3.76345e-15
1.25272e-14
8.9715e-15
4.57658e-15
1.69733e-14
1.34572e-14
4.46857e-15
7.6558e-15
7.65624e-15
1.62339e-14
8.11744e-15
1.11465e-14
1.11816e-14
2.2702e-15
4.44056e-15
6.69739e-15
6.67809e-15
4.47293e-15
3.36431e-15
2.95045e-15
2.28773e-15
3.4316e-15
3.41976e-15
6.8632e-15
4.56204e-15
3.39699e-15
4.31806e-15
4.57658e-15
3.18473e-15
3.40289e-15
3.40289e-15
2.57782e-15
1.8953e-15
2.95045e-15
3.41976e-15
4.57546e-15
5.60719e-15
2.26508e-15
3.76272e-15
4.57546e-15
4.48684e-15
4.53016e-15
8.92046e-15
4.45641e-15
6.71424e-15
6.67809e-15
8.92046e-15
6.68099e-15
4.48575e-15
7.6558e-15
2.28997e-15
8.9715e-15
7.65624e-15
4.45206e-15
7.52544e-15
8.95415e-15
7.52544e-15
7.52544e-15
4.47293e-15
8.95415e-15
7.6558e-15
1.11465e-14
1.1163e-14
4.53016e-15
4.42536e-15
4.48575e-15
6.68099e-15
4.47293e-15
7.57527e-15
4.53016e-15
4.57546e-15
4.57546e-15
3.78764e-15
4.57546e-15
3.87365e-15
6.36945e-15
2.29667e-15
2.18814e-15
4.43954e-15
4.5404e-15
4.57546e-15
4.57546e-15
1.12582e-15
4.57546e-15
2.28997e-15
2.25404e-15
4.53016e-15
4.53016e-15
4.48575e-15
4.5404e-15
5.87757e-15
4.48575e-15
8.92046e-15
2.26619e-15
6.71133e-15
6.67809e-15
9.75099e-15
6.72935e-15
7.65624e-15
7.6558e-15
8.9715e-15
8.9715e-15
4.48575e-15
8.95415e-15
7.52544e-15
8.9715e-15
4.57546e-15
1.7943e-14
8.9715e-15
8.95415e-15
1.53116e-14
9.15093e-15
8.92046e-15
7.52544e-15
9.15093e-15
9.15093e-15
7.57527e-15
9.34426e-15
4.57546e-15
4.57546e-15
4.57546e-15
4.57546e-15
2.2702e-15
2.24287e-15
3.87365e-15
2.06073e-15
4.57546e-15
3.91814e-16
4.43846e-15
3.87365e-15
4.57546e-15
3.87365e-15
1.12144e-15
3.87454e-15
4.57658e-15
5.87757e-15
4.57546e-15
4.57546e-15
4.55758e-15
4.55758e-15
9.06033e-15
9.15093e-15
6.8632e-15
1.53116e-14
1.12696e-14
4.57993e-15
6.67809e-15
7.52544e-15
7.52544e-15
1.17551e-14
4.57658e-15
4.45206e-15
8.9715e-15
8.9715e-15
1.53116e-14
1.53116e-14
8.9715e-15
1.53116e-14
7.57564e-15
8.9715e-15
8.93714e-15
4.57546e-15
8.92046e-15
6.8452e-15
5.63536e-15
4.57546e-15
5.87801e-15
4.48575e-15
3.78764e-15
4.57546e-15
2.2702e-15
3.78764e-15
2.26619e-15
6.86394e-15
2.28773e-15
4.51248e-15
4.54483e-15
4.54483e-15
4.57546e-15
2.22572e-15
4.57546e-15
3.87365e-15
6.37014e-15
3.78764e-15
3.78764e-15
3.78764e-15
2.20253e-15
3.78764e-15
2.26619e-15
4.57658e-15
4.53016e-15
4.57658e-15
8.9715e-15
6.8452e-15
6.8452e-15
4.54483e-15
8.9715e-15
5.63536e-15
8.9715e-15
7.52544e-15
8.97205e-15
8.93932e-15
8.95633e-15
8.9715e-15
8.9715e-15
2.3777e-14
8.9715e-15
1.18888e-14
8.9715e-15
8.9715e-15
8.9715e-15
4.57546e-15
9.06033e-15
4.48575e-15
7.57527e-15
7.57527e-15
7.57527e-15
4.5404e-15
6.82767e-15
6.82767e-15
4.57546e-15
4.57546e-15
4.57658e-15
8.24294e-15
6.8106e-15
6.8106e-15
4.5239e-15
4.57546e-15
6.84817e-15
9.15093e-15
9.15093e-15
9.1351e-15
6.8632e-15
4.57993e-15
7.7473e-15
6.86394e-15
4.5404e-15
7.7473e-15
4.57546e-15
4.57546e-15
4.57546e-15
4.57546e-15
7.57527e-15
6.71133e-15
4.57546e-15
7.57527e-15
1.17551e-14
9.06033e-15
7.52544e-15
7.52544e-15
6.8452e-15
8.9715e-15
9.06033e-15
6.8452e-15
7.6558e-15
1.12699e-14
8.93932e-15
1.34227e-14
1.12696e-14
6.86618e-15
9.15093e-15
7.52544e-15
6.73154e-15
4.57546e-15
4.57546e-15
4.57546e-15
4.53016e-15
4.55758e-15
4.55758e-15
2.28773e-15
6.86618e-15
9.15093e-15
9.15093e-15
6.8452e-15
2.27907e-15
4.5404e-15
4.57546e-15
4.57546e-15
4.57658e-15
2.2702e-15
4.57546e-15
4.57546e-15
4.57546e-15
4.5404e-15
6.82767e-15
8.10104e-15
5.87801e-15
4.57546e-15
8.9715e-15
2.28773e-15
7.65624e-15
4.5404e-15
7.52544e-15
6.71133e-15
4.57546e-15
8.9715e-15
4.48575e-15
7.65624e-15
9.15093e-15
4.57546e-15
1.12696e-14
7.52544e-15
1.49648e-14
1.53116e-14
8.92046e-15
1.53116e-14
7.52544e-15
1.34227e-14
7.52544e-15
4.57546e-15
1.53116e-14
9.0808e-15
6.73154e-15
4.48575e-15
4.53016e-15
4.48575e-15
7.7473e-15
4.53016e-15
7.57527e-15
7.7473e-15
3.78764e-15
9.15093e-15
2.28997e-15
3.87365e-15
9.15093e-15
6.36945e-15
1.10332e-14
4.57546e-15
6.8632e-15
8.87746e-15
6.8106e-15
4.57993e-15
4.57993e-15
4.57993e-15
4.57546e-15
2.25404e-15
6.86394e-15
4.57546e-15
4.5404e-15
4.57546e-15
4.55758e-15
6.66504e-15
6.71424e-15
6.71133e-15
6.73154e-15
6.67809e-15
1.12696e-14
8.07815e-15
7.52544e-15
7.65624e-15
4.57546e-15
9.06033e-15
8.97205e-15
4.57546e-15
8.92046e-15
7.65624e-15
9.06033e-15
1.34227e-14
4.57546e-15
8.9715e-15
1.34057e-14
5.87801e-15
9.15093e-15
4.53016e-15
4.57658e-15
9.15093e-15
7.57527e-15
4.57546e-15
4.48575e-15
9.15093e-15
4.57546e-15
3.78764e-15
5.69088e-15
8.24294e-15
4.57546e-15
1.8891e-15
4.12147e-15
3.67972e-16
4.21283e-15
2.23923e-15
4.57546e-15
4.57546e-15
3.87365e-15
4.53016e-15
7.7473e-15
2.28773e-15
3.78764e-15
5.87801e-15
2.28997e-15
4.57546e-15
5.87757e-15
8.87245e-15
4.57546e-15
6.71133e-15
8.9715e-15
9.06033e-15
8.90413e-15
9.06033e-15
8.9715e-15
7.52544e-15
7.52544e-15
8.93714e-15
8.9715e-15
8.97205e-15
8.93714e-15
1.62339e-14
8.9715e-15
1.7943e-14
1.53116e-14
8.97205e-15
1.34576e-14
8.9715e-15
8.9715e-15
4.41915e-15
4.48575e-15
6.59752e-15
8.97205e-15
4.36681e-15
2.24287e-15
4.36681e-15
2.24287e-15
2.18045e-15
2.24507e-15
2.14392e-15
1.12144e-15
4.85524e-16
5.05522e-16
9.11168e-16
5.60719e-16
1.05914e-15
7.00898e-16
1.68216e-15
2.70347e-15
3.30137e-15
6.60275e-15
2.24287e-15
3.29983e-15
4.2443e-15
4.36681e-15
4.48575e-15
4.48684e-15
4.48684e-15
8.90413e-15
4.48575e-15
8.8383e-15
4.42105e-15
8.9715e-15
8.97205e-15
1.78083e-14
1.33896e-14
8.71384e-15
1.78083e-14
1.78083e-14
4.36681e-15
1.32578e-14
1.78083e-14
8.90439e-15
8.8421e-15
1.3323e-14
4.48575e-15
1.33896e-14
8.9715e-15
8.9715e-15
2.24507e-15
4.36681e-15
4.05848e-15
4.48575e-15
6.60561e-15
3.36431e-15
2.24507e-15
2.24287e-15
2.24507e-15
1.13896e-15
1.62608e-15
7.37612e-16
5.6948e-16
5.05522e-16
5.39758e-16
4.20539e-16
6.3718e-16
1.12582e-15
1.68216e-15
2.70347e-15
3.30137e-15
4.36681e-15
3.30137e-15
2.24287e-15
4.24327e-15
2.1834e-15
4.48575e-15
4.2443e-15
2.1834e-15
8.90413e-15
8.71384e-15
8.9715e-15
4.42536e-15
6.47647e-15
6.47647e-15
8.90413e-15
8.97205e-15
8.90413e-15
8.9715e-15
1.34572e-14
8.9715e-15
8.9715e-15
1.34572e-14
4.49013e-15
8.9715e-15
8.8421e-15
4.49013e-15
2.19061e-14
4.49013e-15
4.48575e-15
8.28854e-15
4.37106e-15
1.12144e-14
6.66215e-15
6.60561e-15
3.36431e-15
4.49013e-15
2.24287e-15
2.1919e-15
4.48684e-15
1.13475e-15
1.13896e-15
9.40679e-16
8.34618e-16
8.34618e-16
8.14719e-16
1.07792e-15
1.68216e-15
2.25164e-15
1.59589e-15
2.24287e-15
5.4841e-15
3.3071e-15
1.05914e-15
3.30137e-15
2.1919e-15
4.05848e-15
6.72862e-15
8.9715e-15
6.66215e-15
6.26362e-15
8.9715e-15
8.11695e-15
4.48575e-15
8.28854e-15
3.78764e-16
8.71331e-15
8.9715e-15
8.28904e-15
1.29515e-14
4.49013e-15
8.28854e-15
4.48575e-15
8.28854e-15
4.48575e-15
4.49013e-15
1.34572e-14
1.7943e-14
6.73154e-15
4.42105e-15
2.24287e-15
4.37106e-15
4.42105e-15
6.73154e-15
6.60275e-15
2.1834e-15
5.60719e-15
2.93879e-15
2.1919e-15
2.97338e-15
1.14387e-15
1.69881e-15
1.63629e-15
1.63629e-15
1.61688e-15
2.16963e-15
2.16963e-15
1.68216e-15
2.28773e-15
1.69384e-15
2.84544e-15
6.66215e-15
3.3071e-15
1.12144e-15
2.1919e-15
2.1919e-15
2.24287e-15
6.26362e-15
4.48575e-15
4.48575e-15
4.48575e-15
4.48575e-15
6.26362e-15
4.48575e-15
6.26362e-15
4.05848e-15
8.48654e-15
4.36681e-15
1.34572e-14
8.84426e-15
4.05945e-15
8.11695e-15
8.8421e-15
8.11695e-15
8.8421e-15
8.8421e-15
1.34572e-14
1.7943e-14
6.73154e-15
4.48575e-15
2.24287e-15
6.26429e-15
8.48654e-15
6.73154e-15
4.48575e-15
4.42105e-15
5.60719e-15
1.88283e-15
2.8174e-15
1.13475e-15
1.13475e-15
1.68508e-15
1.65728e-15
1.65728e-15
5.70665e-16
5.69654e-16
5.8087e-16
1.62608e-15
1.6373e-15
2.0208e-15
2.24287e-15
6.66215e-15
2.24287e-15
2.1834e-15
2.5835e-15
2.1834e-15
2.24287e-15
8.11695e-15
4.48575e-15
8.90413e-15
6.72862e-15
6.66215e-15
5.74185e-15
2.24287e-15
8.9715e-15
4.48575e-15
1.29519e-14
4.36681e-15
1.25276e-14
8.8421e-15
4.05848e-15
8.97369e-15
8.8421e-15
8.90413e-15
8.9715e-15
8.90413e-15
8.90413e-15
8.9715e-15
8.11695e-15
8.97369e-15
6.72935e-15
4.37106e-15
4.37106e-15
4.48575e-15
4.48575e-15
4.49013e-15
3.36603e-15
3.36603e-15
2.24507e-15
3.87454e-15
2.18423e-15
2.18423e-15
1.09525e-15
2.16963e-15
2.19263e-15
2.19263e-15
1.09212e-15
2.23438e-15
3.37186e-15
3.37186e-15
3.36603e-15
4.42105e-15
3.36603e-15
3.36431e-15
2.24287e-15
2.24507e-15
3.36603e-15
6.60561e-15
3.76345e-15
1.10846e-14
6.72862e-15
6.66215e-15
8.84426e-15
4.48684e-15
4.48575e-15
8.11744e-15
4.48575e-15
8.97205e-15
8.11744e-15
8.97205e-15
8.97205e-15
8.97369e-15
8.97369e-15
8.97369e-15
8.11744e-15
8.90413e-15
1.34587e-14
1.25272e-14
6.66215e-15
8.97369e-15
4.42536e-15
4.37106e-15
4.48684e-15
4.53016e-15
4.42105e-15
4.49013e-15
2.84655e-15
2.26619e-15
2.28997e-15
2.24287e-15
2.18423e-15
2.16377e-15
1.11026e-15
2.28773e-15
2.28773e-15
2.28997e-15
1.15355e-15
1.93861e-15
2.16147e-15
2.16147e-15
2.24287e-15
4.48575e-15
4.48575e-15
2.26508e-15
2.24507e-15
2.28997e-15
4.57546e-15
6.60561e-15
5.87757e-15
1.11465e-14
4.03908e-15
4.48575e-15
8.84426e-15
5.94425e-15
7.52544e-15
4.48575e-15
8.9715e-15
1.18885e-14
1.25272e-14
8.9715e-15
7.6558e-15
8.97369e-15
1.34572e-14
8.97369e-15
4.48684e-15
1.25272e-14
1.34587e-14
8.97369e-15
6.66215e-15
8.9715e-15
6.72935e-15
2.95045e-15
6.66215e-15
5.64408e-15
6.72862e-15
2.93967e-15
2.24507e-15
1.88283e-15
1.14833e-15
2.24287e-15
1.19153e-15
1.19153e-15
5.60719e-16
1.10892e-15
2.29667e-15
2.29667e-15
9.71973e-16
2.23438e-15
2.23438e-15
1.68216e-15
3.30137e-15
4.48575e-15
4.48575e-15
2.22572e-15
2.84655e-15
2.24287e-15
2.28773e-15
4.42105e-15
3.76345e-15
1.3389e-14
3.4316e-15
5.94488e-15
6.66215e-15
8.97205e-15
4.42105e-15
8.11695e-15
8.11695e-15
4.48575e-15
4.42105e-15
8.9715e-15
4.48575e-15
1.34572e-14
1.34572e-14
4.48575e-15
1.3389e-14
1.34572e-14
1.3389e-14
8.9715e-15
5.65086e-15
6.72862e-15
5.65086e-15
5.65086e-15
8.9063e-15
5.65086e-15
6.72862e-15
4.51248e-15
4.51248e-15
5.59106e-15
5.59106e-15
2.18423e-15
4.57546e-15
4.57546e-15
3.4316e-15
3.37186e-15
3.36603e-15
3.31456e-15
3.36603e-15
3.43309e-15
2.84655e-15
3.36603e-15
5.65086e-15
6.73497e-15
6.73497e-15
5.65439e-15
5.65086e-15
4.45578e-15
4.57993e-15
4.57993e-15
4.57993e-15
1.33904e-14
4.57993e-15
4.57546e-15
1.11482e-14
5.87801e-15
4.57546e-15
4.57658e-15
8.90413e-15
4.48575e-15
1.25272e-14
8.9715e-15
4.57658e-15
1.69733e-14
8.9715e-15
7.48228e-15
1.3389e-14
1.78083e-14
1.1484e-14
8.97369e-15
6.72862e-15
8.97205e-15
4.42536e-15
3.76345e-15
8.9063e-15
6.72862e-15
6.72862e-15
5.60719e-15
3.30137e-15
2.1834e-15
3.4316e-15
2.18423e-15
5.24185e-15
3.43309e-15
3.36603e-15
4.57993e-15
4.57993e-15
3.37186e-15
4.57658e-15
2.18423e-15
2.74205e-15
3.36431e-15
2.95045e-15
4.42105e-15
3.43309e-15
5.60719e-15
3.31456e-15
3.27635e-15
4.49013e-15
4.48684e-15
4.49013e-15
1.33904e-14
2.95045e-15
4.48684e-15
1.34587e-14
4.45145e-15
2.25164e-15
3.8279e-15
8.9715e-15
4.48575e-15
8.8421e-15
8.9715e-15
8.90413e-15
1.33904e-14
1.3389e-14
4.49013e-15
1.7943e-14
1.78083e-14
8.9063e-15
1.25272e-14
6.72862e-15
6.73154e-15
6.66215e-15
2.28773e-15
8.9063e-15
6.72862e-15
6.66504e-15
5.60719e-15
3.36431e-15
3.36431e-15
3.87365e-15
2.28773e-15
4.40506e-15
4.40506e-15
6.36945e-15
2.29667e-15
2.29667e-15
4.43954e-15
4.50809e-15
4.50809e-15
2.74205e-15
3.36431e-15
3.30137e-15
4.48575e-15
2.93879e-15
4.53016e-15
2.93967e-15
4.48575e-15
4.49013e-15
5.87757e-15
4.49013e-15
1.11482e-14
6.72935e-15
8.8421e-15
1.34587e-14
9.75099e-15
6.72935e-15
7.65624e-15
7.6558e-15
7.65624e-15
4.49013e-15
8.9063e-15
8.9063e-15
8.97369e-15
1.3389e-14
8.9715e-15
1.7943e-14
1.33243e-14
1.3389e-14
1.34572e-14
9.01617e-15
1.12161e-14
6.66215e-15
2.26619e-15
6.66215e-15
6.72862e-15
9.34426e-15
4.42105e-15
3.36577e-15
3.36431e-15
2.28997e-15
2.23438e-15
4.50809e-15
4.50809e-15
4.45578e-15
4.57546e-15
7.00898e-16
4.43846e-15
3.87365e-15
6.8632e-15
2.28997e-15
3.3071e-15
3.87454e-15
5.60719e-15
2.26619e-15
4.50809e-15
4.50809e-15
4.45578e-15
4.48575e-15
4.53016e-15
4.48575e-15
1.12161e-14
4.42105e-15
8.8421e-15
4.48575e-15
2.26508e-15
2.28997e-15
4.49013e-15
1.17551e-14
8.97205e-15
4.48684e-15
1.18888e-14
8.9063e-15
1.53116e-14
1.50511e-14
8.90413e-15
1.78743e-14
8.9063e-15
1.3389e-14
7.6558e-15
4.48684e-15
1.12161e-14
5.69143e-15
5.63536e-15
4.57546e-15
5.87801e-15
4.48575e-15
2.24287e-15
2.23438e-15
2.26508e-15
3.87365e-15
2.29667e-15
6.86394e-15
2.28773e-15
4.57993e-15
4.57993e-15
4.57993e-15
2.28997e-15
2.22572e-15
3.87454e-15
2.22572e-15
6.37014e-15
3.36431e-15
5.60719e-15
3.78764e-15
1.12582e-15
2.22572e-15
4.45578e-15
4.57658e-15
4.51248e-15
4.57658e-15
1.12161e-14
4.53016e-15
8.8421e-15
4.50809e-15
4.50809e-15
6.66504e-15
4.42536e-15
4.57658e-15
1.18885e-14
7.52544e-15
4.49013e-15
3.76272e-15
4.42536e-15
1.34587e-14
8.90413e-15
1.18888e-14
8.9715e-15
4.49013e-15
5.9009e-15
4.57546e-15
8.90413e-15
4.48575e-15
3.78838e-15
4.45145e-15
4.48575e-15
4.57546e-15
4.57546e-15
4.57546e-15
6.02956e-15
4.50809e-15
6.02892e-15
4.57546e-15
4.12246e-15
4.57546e-15
6.8632e-15
4.57546e-15
4.57546e-15
6.1822e-15
2.23438e-15
2.28773e-15
3.77497e-15
4.57658e-15
4.42536e-15
6.86394e-15
3.87365e-15
4.57546e-15
2.28997e-15
4.45145e-15
4.50809e-15
4.50809e-15
8.9063e-15
4.50809e-15
4.57546e-15
4.50809e-15
4.50809e-15
8.97205e-15
8.07815e-15
7.52544e-15
4.57658e-15
4.49013e-15
1.12699e-14
4.57658e-15
7.6558e-15
1.34587e-14
8.8421e-15
7.6558e-15
1.12696e-14
6.8632e-15
4.49013e-15
4.48575e-15
6.79399e-15
6.79399e-15
4.50809e-15
4.48575e-15
3.78838e-15
4.36681e-15
3.37015e-15
4.57546e-15
3.78838e-15
4.57546e-15
5.69143e-15
3.87365e-15
2.28773e-15
4.31911e-15
2.19263e-15
2.25459e-15
4.57658e-15
2.22572e-15
4.57546e-15
2.29667e-15
2.23438e-15
3.36431e-15
4.57658e-15
4.05052e-15
5.87801e-15
4.57546e-15
5.90134e-15
2.28773e-15
8.9715e-15
4.48575e-15
6.60275e-15
4.50809e-15
2.26619e-15
4.57546e-15
4.45145e-15
7.65624e-15
8.07815e-15
7.00898e-16
1.53118e-14
4.53016e-15
1.49648e-14
1.53116e-14
4.49013e-15
1.7943e-14
7.52544e-15
1.12882e-14
8.84426e-15
4.57658e-15
1.53116e-14
6.8632e-15
9.15093e-15
9.15093e-15
9.0808e-15
1.13017e-14
1.1368e-14
1.1368e-14
6.8632e-15
6.8632e-15
9.15093e-15
9.15093e-15
4.57546e-15
9.15093e-15
9.15093e-15
6.79399e-15
1.10332e-14
1.14387e-14
1.14387e-14
1.14387e-14
9.15093e-15
9.15316e-15
9.15316e-15
9.15093e-15
6.79399e-15
6.79399e-15
6.86394e-15
6.79399e-15
1.1368e-14
1.1368e-14
1.13017e-14
9.0808e-15
9.0808e-15
1.1368e-14
1.3588e-14
1.3588e-14
9.0808e-15
1.33904e-14
9.01617e-15
7.65624e-15
9.15093e-15
9.15093e-15
1.34576e-14
1.36553e-14
1.36553e-14
1.7943e-14
1.14404e-14
1.18885e-14
1.18885e-14
1.13035e-14
1.13035e-14
8.8421e-15
6.66504e-15
4.57993e-15
4.57658e-15
4.48575e-15
2.28773e-15
6.66215e-15
6.79399e-15
6.79399e-15
6.8632e-15
6.8632e-15
5.69088e-15
4.50809e-15
4.50809e-15
2.22572e-15
4.57546e-15
4.57546e-15
4.43846e-15
2.22572e-15
2.22572e-15
2.24287e-15
3.78838e-15
3.36431e-15
6.72862e-15
4.48575e-15
4.45145e-15
5.87801e-15
4.57546e-15
4.51248e-15
5.87757e-15
7.65624e-15
8.9715e-15
8.9715e-15
4.50809e-15
4.50809e-15
4.50809e-15
1.34572e-14
4.45145e-15
4.53016e-15
8.9715e-15
8.8421e-15
8.97205e-15
8.97205e-15
8.07815e-15
1.62339e-14
8.97205e-15
8.8421e-15
1.12696e-14
8.97205e-15
1.34576e-14
4.48575e-15
1.29298e-14
1.31004e-14
8.52455e-15
6.59752e-15
6.66133e-15
4.28785e-15
3.36431e-15
3.30137e-15
1.68216e-15
2.12163e-15
2.24507e-15
1.05914e-15
1.27436e-15
1.18371e-15
1.12144e-15
1.12144e-15
1.12144e-15
1.49525e-15
1.12144e-15
4.85524e-16
1.12144e-15
2.24287e-15
2.37638e-15
2.15434e-15
3.29983e-15
4.28785e-15
2.12163e-15
8.64511e-15
4.42023e-15
8.64511e-15
4.28785e-15
8.52455e-15
8.7748e-15
4.36681e-15
8.9715e-15
4.48575e-15
8.9715e-15
4.48575e-15
1.75706e-14
8.8421e-15
8.64511e-15
8.64511e-15
1.32578e-14
8.64511e-15
1.33257e-14
8.90413e-15
1.77416e-14
1.74672e-14
8.8421e-15
2.24287e-15
4.42536e-15
4.37106e-15
6.72862e-15
4.42536e-15
2.24287e-15
2.24287e-15
3.36431e-15
3.30137e-15
2.03119e-15
2.24507e-15
1.12144e-15
1.07196e-15
1.08845e-15
8.54482e-16
6.46398e-16
5.60719e-16
6.46398e-16
9.2869e-16
1.68216e-15
7.57527e-16
1.02011e-15
2.14392e-15
3.13181e-15
1.12144e-15
3.3071e-15
3.19178e-15
6.46398e-16
4.2443e-15
4.48684e-15
1.19153e-15
6.26362e-15
8.71384e-15
1.09529e-14
6.72862e-15
6.47647e-15
6.47647e-15
4.48575e-15
8.97205e-15
8.90413e-15
1.31936e-14
1.79433e-14
4.48575e-15
8.9715e-15
1.34576e-14
2.22929e-14
8.9715e-15
1.34587e-14
8.97205e-15
1.3194e-14
2.02924e-15
4.42536e-15
8.28854e-15
6.72862e-15
8.48654e-15
4.05848e-15
2.03119e-15
3.3071e-15
3.25217e-15
1.07717e-15
2.24287e-15
4.2443e-15
1.13475e-15
1.68216e-15
1.05313e-15
9.34531e-16
9.34531e-16
1.45787e-15
1.45787e-15
1.4018e-15
1.68216e-15
1.68216e-15
1.45787e-15
1.91571e-15
1.12144e-15
4.32256e-15
4.26227e-15
1.03684e-15
3.92242e-15
6.26362e-15
8.48654e-15
3.92242e-15
4.05848e-15
8.78745e-15
8.11695e-15
4.05848e-15
8.28854e-15
1.1303e-15
8.9715e-15
4.48575e-15
8.28904e-15
8.71331e-15
1.12144e-15
4.49013e-15
4.36681e-15
2.22929e-14
8.9715e-15
1.34587e-14
2.00257e-15
1.67684e-14
2.27862e-15
2.16147e-15
6.55021e-15
8.84426e-15
4.32256e-15
4.36681e-15
2.16147e-15
1.62531e-15
2.16963e-15
2.35597e-15
2.24287e-15
2.8174e-15
1.62531e-15
1.68216e-15
1.09212e-15
1.7158e-15
1.7158e-15
1.7158e-15
1.12144e-15
1.62531e-15
2.28773e-15
2.71622e-15
2.84544e-15
2.75491e-15
2.28773e-15
4.32256e-15
4.26227e-15
2.16377e-15
2.24287e-15
2.24287e-15
4.48575e-15
2.24287e-15
2.24287e-15
8.78745e-15
4.32674e-15
4.32256e-15
1.12144e-14
3.74114e-15
8.8421e-15
7.84484e-15
1.34572e-14
8.90413e-15
1.7158e-15
4.49013e-15
3.8279e-15
2.22291e-14
8.9715e-15
1.29515e-14
3.74114e-15
1.29515e-14
4.48575e-15
2.24287e-15
2.24287e-15
8.84426e-15
6.72862e-15
4.48575e-15
4.42105e-15
2.12272e-15
1.14387e-15
1.88136e-15
2.24507e-15
2.1834e-15
1.12144e-15
1.7158e-15
1.7158e-15
1.65728e-15
1.14387e-15
1.16174e-15
1.16174e-15
1.477e-15
5.98137e-16
2.01954e-15
1.12144e-15
2.24287e-15
1.13546e-15
4.32674e-15
4.26227e-15
2.24287e-15
2.24287e-15
6.26362e-15
4.48575e-15
4.48575e-15
4.05848e-15
4.29197e-15
5.74185e-15
4.48575e-15
8.9715e-15
4.36681e-15
8.48654e-15
4.42105e-15
1.25276e-14
8.9715e-15
4.48575e-15
8.11744e-15
4.42105e-15
2.22282e-14
1.25272e-14
8.90413e-15
8.9715e-15
1.21754e-14
4.48575e-15
3.76272e-15
4.48684e-15
6.72862e-15
4.49013e-15
3.76272e-15
4.42105e-15
2.84544e-15
2.8174e-15
2.24287e-15
2.24287e-15
2.95045e-15
1.68216e-15
1.88136e-15
3.4316e-15
1.98984e-15
1.10961e-15
1.11026e-15
2.28997e-15
2.22572e-15
1.68216e-15
1.68216e-15
2.24287e-15
1.68216e-15
3.36577e-15
4.49013e-15
3.21589e-15
2.24507e-15
2.1834e-15
1.72888e-15
3.8279e-15
4.48575e-15
2.24287e-15
6.73154e-15
4.48575e-15
4.48575e-15
4.29197e-15
7.65624e-15
4.29197e-15
4.48684e-15
8.11744e-15
8.97205e-15
8.9063e-15
4.42105e-15
8.97205e-15
1.78743e-14
1.33904e-14
1.25272e-14
4.48684e-15
1.62339e-14
4.48575e-15
3.8279e-15
3.76272e-15
6.66504e-15
6.55021e-15
3.76272e-15
2.25164e-15
1.4018e-15
1.88136e-15
1.89382e-15
2.15217e-15
2.28773e-15
2.28773e-15
1.14387e-15
2.06073e-15
2.28773e-15
2.28773e-15
2.28997e-15
3.31456e-15
3.31456e-15
2.18423e-15
1.12144e-15
2.15217e-15
2.28773e-15
2.26508e-15
5.61069e-15
3.36603e-15
3.36603e-15
4.36681e-15
2.14392e-15
1.88283e-15
4.37106e-15
2.26619e-15
8.78531e-15
4.42105e-15
6.66215e-15
5.63481e-15
4.49013e-15
8.9715e-15
1.18885e-14
1.25272e-14
7.65624e-15
8.9063e-15
4.48575e-15
1.3389e-14
8.9715e-15
1.33904e-14
8.9715e-15
8.9715e-15
4.48575e-15
6.72862e-15
5.64408e-15
5.94488e-15
8.8421e-15
6.55021e-15
5.64408e-15
2.23438e-15
3.21589e-15
1.14387e-15
2.93879e-15
2.11827e-15
1.14387e-15
1.47116e-15
1.12144e-15
1.09377e-15
1.15355e-15
2.16377e-15
2.28773e-15
1.09525e-15
1.89382e-15
2.16963e-15
2.16963e-15
2.28997e-15
3.87365e-15
1.14387e-15
5.61069e-15
2.8174e-15
2.22572e-15
4.36681e-15
2.26619e-15
3.76272e-15
2.24507e-15
4.42105e-15
8.78531e-15
4.42105e-15
8.97205e-15
3.78838e-15
4.48575e-15
8.11695e-15
2.28773e-15
4.48684e-15
8.11744e-15
4.42105e-15
1.34572e-14
1.3389e-14
1.32632e-14
8.9715e-15
4.36681e-15
8.9715e-15
1.25272e-14
6.72862e-15
4.32674e-15
3.4316e-15
8.8421e-15
6.60275e-15
3.8279e-15
4.03971e-15
3.21589e-15
2.8174e-15
1.14387e-15
2.84544e-15
4.34537e-15
4.34537e-15
3.36603e-15
4.31806e-15
3.29742e-15
4.37267e-15
4.37267e-15
3.1861e-15
3.43309e-15
2.18423e-15
1.93683e-15
2.8185e-15
3.4316e-15
2.28773e-15
5.48752e-15
3.25778e-15
4.03971e-15
4.37106e-15
3.78838e-15
4.48575e-15
4.57658e-15
4.48575e-15
6.73154e-15
4.57658e-15
8.8421e-15
4.49013e-15
4.37106e-15
4.37106e-15
4.03908e-15
1.25272e-14
4.03908e-15
7.48228e-15
1.18888e-14
1.33257e-14
1.79441e-14
4.49013e-15
7.6558e-15
8.11695e-15
4.42536e-15
4.42536e-15
5.64408e-15
5.94488e-15
6.60561e-15
8.73362e-15
5.94425e-15
2.28773e-15
2.28997e-15
2.84655e-15
2.18423e-15
2.28773e-15
2.28773e-15
3.01446e-15
2.28997e-15
2.16147e-15
3.1861e-15
3.39589e-15
3.27635e-15
4.57658e-15
1.93683e-15
1.88283e-15
2.84655e-15
2.84544e-15
3.4316e-15
2.16147e-15
5.54142e-15
4.32256e-15
3.36603e-15
4.48575e-15
2.14392e-15
4.03908e-15
4.36681e-15
4.32256e-15
6.73154e-15
7.48228e-15
4.42536e-15
4.49013e-15
4.42105e-15
1.18885e-14
4.42105e-15
4.48684e-15
8.11695e-15
4.45145e-15
4.37106e-15
8.84426e-15
1.79441e-14
8.78531e-15
4.42105e-15
4.48575e-15
1.25272e-14
6.60275e-15
5.87757e-15
4.57546e-15
4.57546e-15
8.73362e-15
4.50809e-15
4.50809e-15
5.60719e-15
2.26508e-15
3.22138e-15
3.87365e-15
4.51248e-15
4.51248e-15
3.87365e-15
1.88748e-15
2.23438e-15
2.28773e-15
2.28773e-15
1.93683e-15
1.12144e-15
4.57546e-15
2.16963e-15
3.87365e-15
2.28997e-15
2.93879e-15
5.54142e-15
4.32256e-15
4.45145e-15
6.60561e-15
6.55305e-15
4.57546e-15
4.50809e-15
7.6558e-15
6.55305e-15
6.60275e-15
6.72862e-15
2.26508e-15
8.9715e-15
8.78531e-15
8.8421e-15
8.84426e-15
8.8421e-15
8.84426e-15
1.33243e-14
8.90413e-15
1.7943e-14
1.33243e-14
4.48575e-15
8.97205e-15
1.33243e-14
6.60275e-15
3.76345e-15
4.28785e-15
4.32674e-15
4.48575e-15
4.48575e-15
5.63481e-15
2.18423e-15
2.28773e-15
3.36431e-15
6.8632e-15
4.57993e-15
4.57546e-15
2.28773e-15
2.18423e-15
4.57546e-15
4.57546e-15
4.57658e-15
2.18423e-15
6.8632e-15
4.45578e-15
4.45578e-15
3.18446e-15
4.57546e-15
2.29667e-15
4.57658e-15
4.57546e-15
4.57546e-15
6.60561e-15
6.55305e-15
4.36681e-15
2.28773e-15
2.28773e-15
8.78531e-15
6.60275e-15
6.55305e-15
4.45578e-15
8.9715e-15
8.07815e-15
8.97205e-15
8.90413e-15
1.18888e-14
8.84426e-15
1.33243e-14
8.90413e-15
1.78083e-14
1.33257e-14
4.53072e-15
8.84426e-15
1.33243e-14
6.55305e-15
3.78764e-15
4.28785e-15
4.32674e-15
4.45145e-15
4.45145e-15
4.40506e-15
6.73206e-15
6.73206e-15
6.73206e-15
3.87365e-15
4.57546e-15
4.57546e-15
4.50809e-15
4.40506e-15
8.81226e-15
8.81226e-15
8.81012e-15
4.32294e-15
3.77497e-15
4.50809e-15
6.73206e-15
6.73206e-15
6.02892e-15
4.45145e-15
4.57546e-15
6.73206e-15
6.73206e-15
4.57658e-15
4.48684e-15
4.57658e-15
4.32256e-15
4.53016e-15
8.78531e-15
6.55021e-15
6.55305e-15
4.32256e-15
6.62912e-15
6.62912e-15
1.18885e-14
8.90413e-15
6.67717e-15
8.85401e-15
8.85401e-15
1.34572e-14
1.78083e-14
1.33257e-14
1.12696e-14
8.90413e-15
8.8421e-15
6.50714e-15
6.5877e-15
6.5877e-15
6.8632e-15
6.62912e-15
8.9029e-15
8.9029e-15
4.36847e-15
4.45578e-15
6.63198e-15
6.63198e-15
6.02892e-15
4.57546e-15
4.37267e-15
6.8632e-15
6.8632e-15
2.28997e-15
2.29667e-15
6.36945e-15
4.51248e-15
4.45145e-15
4.45145e-15
4.45145e-15
4.34123e-15
6.5527e-15
7.7473e-15
4.57546e-15
6.62912e-15
6.63198e-15
6.67717e-15
6.67717e-15
6.67717e-15
6.63198e-15
8.78531e-15
6.62912e-15
6.63198e-15
6.63198e-15
8.07815e-15
4.57546e-15
8.8421e-15
4.48575e-15
1.12699e-14
8.84426e-15
4.53016e-15
6.68006e-15
8.84426e-15
8.78531e-15
1.12696e-14
8.90413e-15
4.57546e-15
5.63481e-15
3.78764e-15
5.87757e-15
2.26508e-15
6.72862e-15
3.78764e-15
2.28773e-15
3.22138e-15
4.57546e-15
4.57546e-15
4.57546e-15
2.28773e-15
3.87365e-15
2.28773e-15
2.28773e-15
1.98796e-15
2.29667e-15
6.8632e-15
1.94419e-15
6.36945e-15
2.18423e-15
1.93683e-15
2.28773e-15
3.87365e-15
3.36431e-15
5.60719e-15
4.57546e-15
5.90134e-15
4.53016e-15
8.9715e-15
5.63481e-15
4.57546e-15
2.26508e-15
6.50714e-15
4.57546e-15
4.57993e-15
7.65624e-15
8.07815e-15
4.37106e-15
1.53118e-14
4.48575e-15
1.12884e-14
1.12696e-14
7.6558e-15
1.12699e-14
8.73574e-15
1.12882e-14
1.33243e-14
8.8421e-15
1.18885e-14
6.62912e-15
8.9029e-15
8.9029e-15