/*--------------------------------*- C++ -*----------------------------------*\
| =========                 |                                                 |
| \\      /  F ield         | OpenFOAM: The Open Source CFD Toolbox           |
|  \\    /   O peration     | Version:  2506                                  |
|   \\  /    A nd           | Website:  www.openfoam.com                      |
|    \\/     M anipulation  |                                                 |
\*---------------------------------------------------------------------------*/
FoamFile
{
    version     2.0;
    format      ascii;
    arch        "LSB;label=32;scalar=64";
    class       volScalarField;
    location    "constant";
    object      wallDistance;
}
// * * * * * * * * * * * * * * * * * * * * * * * * * * * * * * * * * * * * * //

dimensions      [0 1 0 0 0 0 0];

internalField   nonuniform List<scalar> 
17000
(
0.0485294
0.0485294
0.0485294
0.0485294
0.0485294
0.0485294
0.0485294
0.0485294
0.0485294
0.0485294
0.0485294
0.0485294
0.0485294
0.0485294
0.0485294
0.0485294
0.0485294
0.0485294
0.0485294
0.0485294
0.0485294
0.0485294
0.0485294
0.0485294
0.0485294
0.0485294
0.0485294
0.0485294
0.0485294
0.0485294
0.0485294
0.0485294
0.0485294
0.0485294
0.0485294
0.0485294
0.0485294
0.0485294
0.0485294
0.0485294
0.0485294
0.0485294
0.0485294
0.0485294
0.0485294
0.0485294
0.0485294
0.0485294
0.0485294
0.0485294
0.145588
0.145588
0.145588
0.145588
0.145588
0.145588
0.145588
0.145588
0.145588
0.145588
0.145588
0.145588
0.145588
0.145588
0.145588
0.145588
0.145588
0.145588
0.145588
0.145588
0.145588
0.145588
0.145588
0.145588
0.145588
0.145588
0.145588
0.145588
0.145588
0.145588
0.145588
0.145588
0.145588
0.145588
0.145588
0.145588
0.145588
0.145588
0.145588
0.145588
0.145588
0.145588
0.145588
0.145588
0.145588
0.145588
0.145588
0.145588
0.145588
0.145588
0.242647
0.242647
0.242647
0.242647
0.242647
0.242647
0.242647
0.242647
0.242647
0.242647
0.242647
0.242647
0.242647
0.242647
0.242647
0.242647
0.242647
0.242647
0.242647
0.242647
0.242647
0.242647
0.242647
0.242647
0.242647
0.242647
0.242647
0.242647
0.242647
0.242647
0.242647
0.242647
0.242647
0.242647
0.242647
0.242647
0.242647
0.242647
0.242647
0.242647
0.242647
0.242647
0.242647
0.242647
0.242647
0.242647
0.242647
0.242647
0.242647
0.242647
0.339706
0.339706
0.339706
0.339706
0.339706
0.339706
0.339706
0.339706
0.339706
0.339706
0.339706
0.339706
0.339706
0.339706
0.339706
0.339706
0.339706
0.339706
0.339706
0.339706
0.339706
0.339706
0.339706
0.339706
0.339706
0.339706
0.339706
0.339706
0.339706
0.339706
0.339706
0.339706
0.339706
0.339706
0.339706
0.339706
0.339706
0.339706
0.339706
0.339706
0.339706
0.339706
0.339706
0.339706
0.339706
0.339706
0.339706
0.339706
0.339706
0.339706
0.436765
0.436765
0.436765
0.436765
0.436765
0.436765
0.436765
0.436765
0.436765
0.436765
0.436765
0.436765
0.436765
0.436765
0.436765
0.436765
0.436765
0.436765
0.436765
0.436765
0.436765
0.436765
0.436765
0.436765
0.436765
0.436765
0.436765
0.436765
0.436765
0.436765
0.436765
0.436765
0.436765
0.436765
0.436765
0.436765
0.436765
0.436765
0.436765
0.436765
0.436765
0.436765
0.436765
0.436765
0.436765
0.436765
0.436765
0.436765
0.436765
0.436765
0.533824
0.533824
0.533824
0.533824
0.533824
0.533824
0.533824
0.533824
0.533824
0.533824
0.533824
0.533824
0.533824
0.533824
0.533824
0.533824
0.533824
0.533824
0.533824
0.533824
0.533824
0.533824
0.533824
0.533824
0.533824
0.533824
0.533824
0.533824
0.533824
0.533824
0.533824
0.533824
0.533824
0.533824
0.533824
0.533824
0.533824
0.533824
0.533824
0.533824
0.533824
0.533824
0.533824
0.533824
0.533824
0.533824
0.533824
0.533824
0.533824
0.533824
0.630882
0.630882
0.630882
0.630882
0.630882
0.630882
0.630882
0.630882
0.630882
0.630882
0.630882
0.630882
0.630882
0.630882
0.630882
0.630882
0.630882
0.630882
0.630882
0.630882
0.630882
0.630882
0.630882
0.630882
0.630882
0.630882
0.630882
0.630882
0.630882
0.630882
0.630882
0.630882
0.630882
0.630882
0.630882
0.630882
0.630882
0.630882
0.630882
0.630882
0.630882
0.630882
0.630882
0.630882
0.630882
0.630882
0.630882
0.630882
0.630882
0.630882
0.727941
0.727941
0.727941
0.727941
0.727941
0.727941
0.727941
0.727941
0.727941
0.727941
0.727941
0.727941
0.727941
0.727941
0.727941
0.727941
0.727941
0.727941
0.727941
0.727941
0.727941
0.727941
0.727941
0.727941
0.727941
0.727941
0.727941
0.727941
0.727941
0.727941
0.727941
0.727941
0.727941
0.727941
0.727941
0.727941
0.727941
0.727941
0.727941
0.727941
0.727941
0.727941
0.727941
0.727941
0.727941
0.727941
0.727941
0.727941
0.727941
0.727941
0.825
0.825
0.825
0.825
0.825
0.825
0.825
0.825
0.825
0.825
0.825
0.825
0.825
0.825
0.825
0.825
0.825
0.825
0.825
0.825
0.825
0.825
0.825
0.825
0.825
0.825
0.825
0.825
0.825
0.825
0.825
0.825
0.825
0.825
0.825
0.825
0.825
0.825
0.825
0.825
0.825
0.825
0.825
0.825
0.825
0.825
0.825
0.825
0.825
0.825
0.922059
0.922059
0.922059
0.922059
0.922059
0.922059
0.922059
0.922059
0.922059
0.922059
0.922059
0.922059
0.922059
0.922059
0.922059
0.922059
0.922059
0.922059
0.922059
0.922059
0.922059
0.922059
0.922059
0.922059
0.922059
0.922059
0.922059
0.922059
0.922059
0.922059
0.922059
0.922059
0.922059
0.922059
0.922059
0.922059
0.922059
0.922059
0.922059
0.922059
0.922059
0.922059
0.922059
0.922059
0.922059
0.922059
0.922059
0.922059
0.922059
0.922059
1.01912
1.01912
1.01912
1.01912
1.01912
1.01912
1.01912
1.01912
1.01912
1.01912
1.01912
1.01912
1.01912
1.01912
1.01912
1.01912
1.01912
1.01912
1.01912
1.01912
1.01912
1.01912
1.01912
1.01912
1.01912
1.01912
1.01912
1.01912
1.01912
1.01912
1.01912
1.01912
1.01912
1.01912
1.01912
1.01912
1.01912
1.01912
1.01912
1.01912
1.01912
1.01912
1.01912
1.01912
1.01912
1.01912
1.01912
1.01912
1.01912
1.01912
1.11618
1.11618
1.11618
1.11618
1.11618
1.11618
1.11618
1.11618
1.11618
1.11618
1.11618
1.11618
1.11618
1.11618
1.11618
1.11618
1.11618
1.11618
1.11618
1.11618
1.11618
1.11618
1.11618
1.11618
1.11618
1.11618
1.11618
1.11618
1.11618
1.11618
1.11618
1.11618
1.11618
1.11618
1.11618
1.11618
1.11618
1.11618
1.11618
1.11618
1.11618
1.11618
1.11618
1.11618
1.11618
1.11618
1.11618
1.11618
1.11618
1.11618
1.21324
1.21324
1.21324
1.21324
1.21324
1.21324
1.21324
1.21324
1.21324
1.21324
1.21324
1.21324
1.21324
1.21324
1.21324
1.21324
1.21324
1.21324
1.21324
1.21324
1.21324
1.21324
1.21324
1.21324
1.21324
1.21324
1.21324
1.21324
1.21324
1.21324
1.21324
1.21324
1.21324
1.21324
1.21324
1.21324
1.21324
1.21324
1.21324
1.21324
1.21324
1.21324
1.21324
1.21324
1.21324
1.21324
1.21324
1.21324
1.21324
1.21324
1.31029
1.31029
1.31029
1.31029
1.31029
1.31029
1.31029
1.31029
1.31029
1.31029
1.31029
1.31029
1.31029
1.31029
1.31029
1.31029
1.31029
1.31029
1.31029
1.31029
1.31029
1.31029
1.31029
1.31029
1.31029
1.31029
1.31029
1.31029
1.31029
1.31029
1.31029
1.31029
1.31029
1.31029
1.31029
1.31029
1.31029
1.31029
1.31029
1.31029
1.31029
1.31029
1.31029
1.31029
1.31029
1.31029
1.31029
1.31029
1.31029
1.31029
1.40735
1.40735
1.40735
1.40735
1.40735
1.40735
1.40735
1.40735
1.40735
1.40735
1.40735
1.40735
1.40735
1.40735
1.40735
1.40735
1.40735
1.40735
1.40735
1.40735
1.40735
1.40735
1.40735
1.40735
1.40735
1.40735
1.40735
1.40735
1.40735
1.40735
1.40735
1.40735
1.40735
1.40735
1.40735
1.40735
1.40735
1.40735
1.40735
1.40735
1.40735
1.40735
1.40735
1.40735
1.40735
1.40735
1.40735
1.40735
1.40735
1.40735
1.50441
1.50441
1.50441
1.50441
1.50441
1.50441
1.50441
1.50441
1.50441
1.50441
1.50441
1.50441
1.50441
1.50441
1.50441
1.50441
1.50441
1.50441
1.50441
1.50441
1.50441
1.50441
1.50441
1.50441
1.50441
1.50441
1.50441
1.50441
1.50441
1.50441
1.50441
1.50441
1.50441
1.50441
1.50441
1.50441
1.50441
1.50441
1.50441
1.50441
1.50441
1.50441
1.50441
1.50441
1.50441
1.50441
1.50441
1.50441
1.50441
1.50441
1.60147
1.60147
1.60147
1.60147
1.60147
1.60147
1.60147
1.60147
1.60147
1.60147
1.60147
1.60147
1.60147
1.60147
1.60147
1.60147
1.60147
1.60147
1.60147
1.60147
1.60147
1.60147
1.60147
1.60147
1.60147
1.60147
1.60147
1.60147
1.60147
1.60147
1.60147
1.60147
1.60147
1.60147
1.60147
1.60147
1.60147
1.60147
1.60147
1.60147
1.60147
1.60147
1.60147
1.60147
1.60147
1.60147
1.60147
1.60147
1.60147
1.60147
0.0485294
0.0485294
0.0485294
0.0485294
0.0485294
0.0485294
0.0485294
0.0485294
0.0485294
0.0485294
0.0485294
0.0485294
0.0485294
0.0485294
0.0485294
0.0485294
0.0485294
0.0485294
0.0485294
0.0485294
0.0485294
0.0485294
0.0485294
0.0485294
0.0485294
0.0485294
0.0485294
0.0485294
0.0485294
0.0485294
0.0485294
0.0485294
0.0485294
0.0485294
0.0485294
0.0485294
0.0485294
0.0485294
0.0485294
0.0485294
0.0485294
0.0485294
0.0485294
0.0485294
0.0485294
0.0485294
0.0485294
0.0485294
0.0485294
0.0485294
0.145588
0.145588
0.145588
0.145588
0.145588
0.145588
0.145588
0.145588
0.145588
0.145588
0.145588
0.145588
0.145588
0.145588
0.145588
0.145588
0.145588
0.145588
0.145588
0.145588
0.145588
0.145588
0.145588
0.145588
0.145588
0.145588
0.145588
0.145588
0.145588
0.145588
0.145588
0.145588
0.145588
0.145588
0.145588
0.145588
0.145588
0.145588
0.145588
0.145588
0.145588
0.145588
0.145588
0.145588
0.145588
0.145588
0.145588
0.145588
0.145588
0.145588
0.242647
0.242647
0.242647
0.242647
0.242647
0.242647
0.242647
0.242647
0.242647
0.242647
0.242647
0.242647
0.242647
0.242647
0.242647
0.242647
0.242647
0.242647
0.242647
0.242647
0.242647
0.242647
0.242647
0.242647
0.242647
0.242647
0.242647
0.242647
0.242647
0.242647
0.242647
0.242647
0.242647
0.242647
0.242647
0.242647
0.242647
0.242647
0.242647
0.242647
0.242647
0.242647
0.242647
0.242647
0.242647
0.242647
0.242647
0.242647
0.242647
0.242647
0.339706
0.339706
0.339706
0.339706
0.339706
0.339706
0.339706
0.339706
0.339706
0.339706
0.339706
0.339706
0.339706
0.339706
0.339706
0.339706
0.339706
0.339706
0.339706
0.339706
0.339706
0.339706
0.339706
0.339706
0.339706
0.339706
0.339706
0.339706
0.339706
0.339706
0.339706
0.339706
0.339706
0.339706
0.339706
0.339706
0.339706
0.339706
0.339706
0.339706
0.339706
0.339706
0.339706
0.339706
0.339706
0.339706
0.339706
0.339706
0.339706
0.339706
0.436765
0.436765
0.436765
0.436765
0.436765
0.436765
0.436765
0.436765
0.436765
0.436765
0.436765
0.436765
0.436765
0.436765
0.436765
0.436765
0.436765
0.436765
0.436765
0.436765
0.436765
0.436765
0.436765
0.436765
0.436765
0.436765
0.436765
0.436765
0.436765
0.436765
0.436765
0.436765
0.436765
0.436765
0.436765
0.436765
0.436765
0.436765
0.436765
0.436765
0.436765
0.436765
0.436765
0.436765
0.436765
0.436765
0.436765
0.436765
0.436765
0.436765
0.533824
0.533824
0.533824
0.533824
0.533824
0.533824
0.533824
0.533824
0.533824
0.533824
0.533824
0.533824
0.533824
0.533824
0.533824
0.533824
0.533824
0.533824
0.533824
0.533824
0.533824
0.533824
0.533824
0.533824
0.533824
0.533824
0.533824
0.533824
0.533824
0.533824
0.533824
0.533824
0.533824
0.533824
0.533824
0.533824
0.533824
0.533824
0.533824
0.533824
0.533824
0.533824
0.533824
0.533824
0.533824
0.533824
0.533824
0.533824
0.533824
0.533824
0.630882
0.630882
0.630882
0.630882
0.630882
0.630882
0.630882
0.630882
0.630882
0.630882
0.630882
0.630882
0.630882
0.630882
0.630882
0.630882
0.630882
0.630882
0.630882
0.630882
0.630882
0.630882
0.630882
0.630882
0.630882
0.630882
0.630882
0.630882
0.630882
0.630882
0.630882
0.630882
0.630882
0.630882
0.630882
0.630882
0.630882
0.630882
0.630882
0.630882
0.630882
0.630882
0.630882
0.630882
0.630882
0.630882
0.630882
0.630882
0.630882
0.630882
0.727941
0.727941
0.727941
0.727941
0.727941
0.727941
0.727941
0.727941
0.727941
0.727941
0.727941
0.727941
0.727941
0.727941
0.727941
0.727941
0.727941
0.727941
0.727941
0.727941
0.727941
0.727941
0.727941
0.727941
0.727941
0.727941
0.727941
0.727941
0.727941
0.727941
0.727941
0.727941
0.727941
0.727941
0.727941
0.727941
0.727941
0.727941
0.727941
0.727941
0.727941
0.727941
0.727941
0.727941
0.727941
0.727941
0.727941
0.727941
0.727941
0.727941
0.825
0.825
0.825
0.825
0.825
0.825
0.825
0.825
0.825
0.825
0.825
0.825
0.825
0.825
0.825
0.825
0.825
0.825
0.825
0.825
0.825
0.825
0.825
0.825
0.825
0.825
0.825
0.825
0.825
0.825
0.825
0.825
0.825
0.825
0.825
0.825
0.825
0.825
0.825
0.825
0.825
0.825
0.825
0.825
0.825
0.825
0.825
0.825
0.825
0.825
0.922059
0.922059
0.922059
0.922059
0.922059
0.922059
0.922059
0.922059
0.922059
0.922059
0.922059
0.922059
0.922059
0.922059
0.922059
0.922059
0.922059
0.922059
0.922059
0.922059
0.922059
0.922059
0.922059
0.922059
0.922059
0.922059
0.922059
0.922059
0.922059
0.922059
0.922059
0.922059
0.922059
0.922059
0.922059
0.922059
0.922059
0.922059
0.922059
0.922059
0.922059
0.922059
0.922059
0.922059
0.922059
0.922059
0.922059
0.922059
0.922059
0.922059
1.01912
1.01912
1.01912
1.01912
1.01912
1.01912
1.01912
1.01912
1.01912
1.01912
1.01912
1.01912
1.01912
1.01912
1.01912
1.01912
1.01912
1.01912
1.01912
1.01912
1.01912
1.01912
1.01912
1.01912
1.01912
1.01912
1.01912
1.01912
1.01912
1.01912
1.01912
1.01912
1.01912
1.01912
1.01912
1.01912
1.01912
1.01912
1.01912
1.01912
1.01912
1.01912
1.01912
1.01912
1.01912
1.01912
1.01912
1.01912
1.01912
1.01912
1.11618
1.11618
1.11618
1.11618
1.11618
1.11618
1.11618
1.11618
1.11618
1.11618
1.11618
1.11618
1.11618
1.11618
1.11618
1.11618
1.11618
1.11618
1.11618
1.11618
1.11618
1.11618
1.11618
1.11618
1.11618
1.11618
1.11618
1.11618
1.11618
1.11618
1.11618
1.11618
1.11618
1.11618
1.11618
1.11618
1.11618
1.11618
1.11618
1.11618
1.11618
1.11618
1.11618
1.11618
1.11618
1.11618
1.11618
1.11618
1.11618
1.11618
1.21324
1.21324
1.21324
1.21324
1.21324
1.21324
1.21324
1.21324
1.21324
1.21324
1.21324
1.21324
1.21324
1.21324
1.21324
1.21324
1.21324
1.21324
1.21324
1.21324
1.21324
1.21324
1.21324
1.21324
1.21324
1.21324
1.21324
1.21324
1.21324
1.21324
1.21324
1.21324
1.21324
1.21324
1.21324
1.21324
1.21324
1.21324
1.21324
1.21324
1.21324
1.21324
1.21324
1.21324
1.21324
1.21324
1.21324
1.21324
1.21324
1.21324
1.31029
1.31029
1.31029
1.31029
1.31029
1.31029
1.31029
1.31029
1.31029
1.31029
1.31029
1.31029
1.31029
1.31029
1.31029
1.31029
1.31029
1.31029
1.31029
1.31029
1.31029
1.31029
1.31029
1.31029
1.31029
1.31029
1.31029
1.31029
1.31029
1.31029
1.31029
1.31029
1.31029
1.31029
1.31029
1.31029
1.31029
1.31029
1.31029
1.31029
1.31029
1.31029
1.31029
1.31029
1.31029
1.31029
1.31029
1.31029
1.31029
1.31029
1.40735
1.40735
1.40735
1.40735
1.40735
1.40735
1.40735
1.40735
1.40735
1.40735
1.40735
1.40735
1.40735
1.40735
1.40735
1.40735
1.40735
1.40735
1.40735
1.40735
1.40735
1.40735
1.40735
1.40735
1.40735
1.40735
1.40735
1.40735
1.40735
1.40735
1.40735
1.40735
1.40735
1.40735
1.40735
1.40735
1.40735
1.40735
1.40735
1.40735
1.40735
1.40735
1.40735
1.40735
1.40735
1.40735
1.40735
1.40735
1.40735
1.40735
1.50441
1.50441
1.50441
1.50441
1.50441
1.50441
1.50441
1.50441
1.50441
1.50441
1.50441
1.50441
1.50441
1.50441
1.50441
1.50441
1.50441
1.50441
1.50441
1.50441
1.50441
1.50441
1.50441
1.50441
1.50441
1.50441
1.50441
1.50441
1.50441
1.50441
1.50441
1.50441
1.50441
1.50441
1.50441
1.50441
1.50441
1.50441
1.50441
1.50441
1.50441
1.50441
1.50441
1.50441
1.50441
1.50441
1.50441
1.50441
1.50441
1.50441
1.60147
1.60147
1.60147
1.60147
1.60147
1.60147
1.60147
1.60147
1.60147
1.60147
1.60147
1.60147
1.60147
1.60147
1.60147
1.60147
1.60147
1.60147
1.60147
1.60147
1.60147
1.60147
1.60147
1.60147
1.60147
1.60147
1.60147
1.60147
1.60147
1.60147
1.60147
1.60147
1.60147
1.60147
1.60147
1.60147
1.60147
1.60147
1.60147
1.60147
1.60147
1.60147
1.60147
1.60147
1.60147
1.60147
1.60147
1.60147
1.60147
1.60147
0.0485294
0.0485294
0.0485294
0.0485294
0.0485294
0.0485294
0.0485294
0.0485294
0.0485294
0.0485294
0.0485294
0.0485294
0.0485294
0.0485294
0.0485294
0.0485294
0.0485294
0.0485294
0.0485294
0.0485294
0.0485294
0.0485294
0.0485294
0.0485294
0.0485294
0.0485294
0.0485294
0.0485294
0.0485294
0.0485294
0.0485294
0.0485294
0.0485294
0.0485294
0.0485294
0.0485294
0.0485294
0.0485294
0.0485294
0.0485294
0.0485294
0.0485294
0.0485294
0.0485294
0.0485294
0.0485294
0.0485294
0.0485294
0.0485294
0.0485294
0.145588
0.145588
0.145588
0.145588
0.145588
0.145588
0.145588
0.145588
0.145588
0.145588
0.145588
0.145588
0.145588
0.145588
0.145588
0.145588
0.145588
0.145588
0.145588
0.145588
0.145588
0.145588
0.145588
0.145588
0.145588
0.145588
0.145588
0.145588
0.145588
0.145588
0.145588
0.145588
0.145588
0.145588
0.145588
0.145588
0.145588
0.145588
0.145588
0.145588
0.145588
0.145588
0.145588
0.145588
0.145588
0.145588
0.145588
0.145588
0.145588
0.145588
0.242647
0.242647
0.242647
0.242647
0.242647
0.242647
0.242647
0.242647
0.242647
0.242647
0.242647
0.242647
0.242647
0.242647
0.242647
0.242647
0.242647
0.242647
0.242647
0.242647
0.242647
0.242647
0.242647
0.242647
0.242647
0.242647
0.242647
0.242647
0.242647
0.242647
0.242647
0.242647
0.242647
0.242647
0.242647
0.242647
0.242647
0.242647
0.242647
0.242647
0.242647
0.242647
0.242647
0.242647
0.242647
0.242647
0.242647
0.242647
0.242647
0.242647
0.339706
0.339706
0.339706
0.339706
0.339706
0.339706
0.339706
0.339706
0.339706
0.339706
0.339706
0.339706
0.339706
0.339706
0.339706
0.339706
0.339706
0.339706
0.339706
0.339706
0.339706
0.339706
0.339706
0.339706
0.339706
0.339706
0.339706
0.339706
0.339706
0.339706
0.339706
0.339706
0.339706
0.339706
0.339706
0.339706
0.339706
0.339706
0.339706
0.339706
0.339706
0.339706
0.339706
0.339706
0.339706
0.339706
0.339706
0.339706
0.339706
0.339706
0.436765
0.436765
0.436765
0.436765
0.436765
0.436765
0.436765
0.436765
0.436765
0.436765
0.436765
0.436765
0.436765
0.436765
0.436765
0.436765
0.436765
0.436765
0.436765
0.436765
0.436765
0.436765
0.436765
0.436765
0.436765
0.436765
0.436765
0.436765
0.436765
0.436765
0.436765
0.436765
0.436765
0.436765
0.436765
0.436765
0.436765
0.436765
0.436765
0.436765
0.436765
0.436765
0.436765
0.436765
0.436765
0.436765
0.436765
0.436765
0.436765
0.436765
0.533824
0.533824
0.533824
0.533824
0.533824
0.533824
0.533824
0.533824
0.533824
0.533824
0.533824
0.533824
0.533824
0.533824
0.533824
0.533824
0.533824
0.533824
0.533824
0.533824
0.533824
0.533824
0.533824
0.533824
0.533824
0.533824
0.533824
0.533824
0.533824
0.533824
0.533824
0.533824
0.533824
0.533824
0.533824
0.533824
0.533824
0.533824
0.533824
0.533824
0.533824
0.533824
0.533824
0.533824
0.533824
0.533824
0.533824
0.533824
0.533824
0.533824
0.630882
0.630882
0.630882
0.630882
0.630882
0.630882
0.630882
0.630882
0.630882
0.630882
0.630882
0.630882
0.630882
0.630882
0.630882
0.630882
0.630882
0.630882
0.630882
0.630882
0.630882
0.630882
0.630882
0.630882
0.630882
0.630882
0.630882
0.630882
0.630882
0.630882
0.630882
0.630882
0.630882
0.630882
0.630882
0.630882
0.630882
0.630882
0.630882
0.630882
0.630882
0.630882
0.630882
0.630882
0.630882
0.630882
0.630882
0.630882
0.630882
0.630882
0.727941
0.727941
0.727941
0.727941
0.727941
0.727941
0.727941
0.727941
0.727941
0.727941
0.727941
0.727941
0.727941
0.727941
0.727941
0.727941
0.727941
0.727941
0.727941
0.727941
0.727941
0.727941
0.727941
0.727941
0.727941
0.727941
0.727941
0.727941
0.727941
0.727941
0.727941
0.727941
0.727941
0.727941
0.727941
0.727941
0.727941
0.727941
0.727941
0.727941
0.727941
0.727941
0.727941
0.727941
0.727941
0.727941
0.727941
0.727941
0.727941
0.727941
0.825
0.825
0.825
0.825
0.825
0.825
0.825
0.825
0.825
0.825
0.825
0.825
0.825
0.825
0.825
0.825
0.825
0.825
0.825
0.825
0.825
0.825
0.825
0.825
0.825
0.825
0.825
0.825
0.825
0.825
0.825
0.825
0.825
0.825
0.825
0.825
0.825
0.825
0.825
0.825
0.825
0.825
0.825
0.825
0.825
0.825
0.825
0.825
0.825
0.825
0.922059
0.922059
0.922059
0.922059
0.922059
0.922059
0.922059
0.922059
0.922059
0.922059
0.922059
0.922059
0.922059
0.922059
0.922059
0.922059
0.922059
0.922059
0.922059
0.922059
0.922059
0.922059
0.922059
0.922059
0.922059
0.922059
0.922059
0.922059
0.922059
0.922059
0.922059
0.922059
0.922059
0.922059
0.922059
0.922059
0.922059
0.922059
0.922059
0.922059
0.922059
0.922059
0.922059
0.922059
0.922059
0.922059
0.922059
0.922059
0.922059
0.922059
1.01912
1.01912
1.01912
1.01912
1.01912
1.01912
1.01912
1.01912
1.01912
1.01912
1.01912
1.01912
1.01912
1.01912
1.01912
1.01912
1.01912
1.01912
1.01912
1.01912
1.01912
1.01912
1.01912
1.01912
1.01912
1.01912
1.01912
1.01912
1.01912
1.01912
1.01912
1.01912
1.01912
1.01912
1.01912
1.01912
1.01912
1.01912
1.01912
1.01912
1.01912
1.01912
1.01912
1.01912
1.01912
1.01912
1.01912
1.01912
1.01912
1.01912
1.11618
1.11618
1.11618
1.11618
1.11618
1.11618
1.11618
1.11618
1.11618
1.11618
1.11618
1.11618
1.11618
1.11618
1.11618
1.11618
1.11618
1.11618
1.11618
1.11618
1.11618
1.11618
1.11618
1.11618
1.11618
1.11618
1.11618
1.11618
1.11618
1.11618
1.11618
1.11618
1.11618
1.11618
1.11618
1.11618
1.11618
1.11618
1.11618
1.11618
1.11618
1.11618
1.11618
1.11618
1.11618
1.11618
1.11618
1.11618
1.11618
1.11618
1.21324
1.21324
1.21324
1.21324
1.21324
1.21324
1.21324
1.21324
1.21324
1.21324
1.21324
1.21324
1.21324
1.21324
1.21324
1.21324
1.21324
1.21324
1.21324
1.21324
1.21324
1.21324
1.21324
1.21324
1.21324
1.21324
1.21324
1.21324
1.21324
1.21324
1.21324
1.21324
1.21324
1.21324
1.21324
1.21324
1.21324
1.21324
1.21324
1.21324
1.21324
1.21324
1.21324
1.21324
1.21324
1.21324
1.21324
1.21324
1.21324
1.21324
1.31029
1.31029
1.31029
1.31029
1.31029
1.31029
1.31029
1.31029
1.31029
1.31029
1.31029
1.31029
1.31029
1.31029
1.31029
1.31029
1.31029
1.31029
1.31029
1.31029
1.31029
1.31029
1.31029
1.31029
1.31029
1.31029
1.31029
1.31029
1.31029
1.31029
1.31029
1.31029
1.31029
1.31029
1.31029
1.31029
1.31029
1.31029
1.31029
1.31029
1.31029
1.31029
1.31029
1.31029
1.31029
1.31029
1.31029
1.31029
1.31029
1.31029
1.40735
1.40735
1.40735
1.40735
1.40735
1.40735
1.40735
1.40735
1.40735
1.40735
1.40735
1.40735
1.40735
1.40735
1.40735
1.40735
1.40735
1.40735
1.40735
1.40735
1.40735
1.40735
1.40735
1.40735
1.40735
1.40735
1.40735
1.40735
1.40735
1.40735
1.40735
1.40735
1.40735
1.40735
1.40735
1.40735
1.40735
1.40735
1.40735
1.40735
1.40735
1.40735
1.40735
1.40735
1.40735
1.40735
1.40735
1.40735
1.40735
1.40735
1.50441
1.50441
1.50441
1.50441
1.50441
1.50441
1.50441
1.50441
1.50441
1.50441
1.50441
1.50441
1.50441
1.50441
1.50441
1.50441
1.50441
1.50441
1.50441
1.50441
1.50441
1.50441
1.50441
1.50441
1.50441
1.50441
1.50441
1.50441
1.50441
1.50441
1.50441
1.50441
1.50441
1.50441
1.50441
1.50441
1.50441
1.50441
1.50441
1.50441
1.50441
1.50441
1.50441
1.50441
1.50441
1.50441
1.50441
1.50441
1.50441
1.50441
1.60147
1.60147
1.60147
1.60147
1.60147
1.60147
1.60147
1.60147
1.60147
1.60147
1.60147
1.60147
1.60147
1.60147
1.60147
1.60147
1.60147
1.60147
1.60147
1.60147
1.60147
1.60147
1.60147
1.60147
1.60147
1.60147
1.60147
1.60147
1.60147
1.60147
1.60147
1.60147
1.60147
1.60147
1.60147
1.60147
1.60147
1.60147
1.60147
1.60147
1.60147
1.60147
1.60147
1.60147
1.60147
1.60147
1.60147
1.60147
1.60147
1.60147
0.0485294
0.0485294
0.0485294
0.0485294
0.0485294
0.0485294
0.0485294
0.0485294
0.0485294
0.0485294
0.0485294
0.0485294
0.0485294
0.0485294
0.0485294
0.0485294
0.0485294
0.0485294
0.0485294
0.0485294
0.0485294
0.0485294
0.0485294
0.0485294
0.0485294
0.0485294
0.0485294
0.0485294
0.0485294
0.0485294
0.0485294
0.0485294
0.0485294
0.0485294
0.0485294
0.0485294
0.0485294
0.0485294
0.0485294
0.0485294
0.0485294
0.0485294
0.0485294
0.0485294
0.0485294
0.0485294
0.0485294
0.0485294
0.0485294
0.0485294
0.145588
0.145588
0.145588
0.145588
0.145588
0.145588
0.145588
0.145588
0.145588
0.145588
0.145588
0.145588
0.145588
0.145588
0.145588
0.145588
0.145588
0.145588
0.145588
0.145588
0.145588
0.145588
0.145588
0.145588
0.145588
0.145588
0.145588
0.145588
0.145588
0.145588
0.145588
0.145588
0.145588
0.145588
0.145588
0.145588
0.145588
0.145588
0.145588
0.145588
0.145588
0.145588
0.145588
0.145588
0.145588
0.145588
0.145588
0.145588
0.145588
0.145588
0.242647
0.242647
0.242647
0.242647
0.242647
0.242647
0.242647
0.242647
0.242647
0.242647
0.242647
0.242647
0.242647
0.242647
0.242647
0.242647
0.242647
0.242647
0.242647
0.242647
0.242647
0.242647
0.242647
0.242647
0.242647
0.242647
0.242647
0.242647
0.242647
0.242647
0.242647
0.242647
0.242647
0.242647
0.242647
0.242647
0.242647
0.242647
0.242647
0.242647
0.242647
0.242647
0.242647
0.242647
0.242647
0.242647
0.242647
0.242647
0.242647
0.242647
0.339706
0.339706
0.339706
0.339706
0.339706
0.339706
0.339706
0.339706
0.339706
0.339706
0.339706
0.339706
0.339706
0.339706
0.339706
0.339706
0.339706
0.339706
0.339706
0.339706
0.339706
0.339706
0.339706
0.339706
0.339706
0.339706
0.339706
0.339706
0.339706
0.339706
0.339706
0.339706
0.339706
0.339706
0.339706
0.339706
0.339706
0.339706
0.339706
0.339706
0.339706
0.339706
0.339706
0.339706
0.339706
0.339706
0.339706
0.339706
0.339706
0.339706
0.436765
0.436765
0.436765
0.436765
0.436765
0.436765
0.436765
0.436765
0.436765
0.436765
0.436765
0.436765
0.436765
0.436765
0.436765
0.436765
0.436765
0.436765
0.436765
0.436765
0.436765
0.436765
0.436765
0.436765
0.436765
0.436765
0.436765
0.436765
0.436765
0.436765
0.436765
0.436765
0.436765
0.436765
0.436765
0.436765
0.436765
0.436765
0.436765
0.436765
0.436765
0.436765
0.436765
0.436765
0.436765
0.436765
0.436765
0.436765
0.436765
0.436765
0.533824
0.533824
0.533824
0.533824
0.533824
0.533824
0.533824
0.533824
0.533824
0.533824
0.533824
0.533824
0.533824
0.533824
0.533824
0.533824
0.533824
0.533824
0.533824
0.533824
0.533824
0.533824
0.533824
0.533824
0.533824
0.533824
0.533824
0.533824
0.533824
0.533824
0.533824
0.533824
0.533824
0.533824
0.533824
0.533824
0.533824
0.533824
0.533824
0.533824
0.533824
0.533824
0.533824
0.533824
0.533824
0.533824
0.533824
0.533824
0.533824
0.533824
0.630882
0.630882
0.630882
0.630882
0.630882
0.630882
0.630882
0.630882
0.630882
0.630882
0.630882
0.630882
0.630882
0.630882
0.630882
0.630882
0.630882
0.630882
0.630882
0.630882
0.630882
0.630882
0.630882
0.630882
0.630882
0.630882
0.630882
0.630882
0.630882
0.630882
0.630882
0.630882
0.630882
0.630882
0.630882
0.630882
0.630882
0.630882
0.630882
0.630882
0.630882
0.630882
0.630882
0.630882
0.630882
0.630882
0.630882
0.630882
0.630882
0.630882
0.727941
0.727941
0.727941
0.727941
0.727941
0.727941
0.727941
0.727941
0.727941
0.727941
0.727941
0.727941
0.727941
0.727941
0.727941
0.727941
0.727941
0.727941
0.727941
0.727941
0.727941
0.727941
0.727941
0.727941
0.727941
0.727941
0.727941
0.727941
0.727941
0.727941
0.727941
0.727941
0.727941
0.727941
0.727941
0.727941
0.727941
0.727941
0.727941
0.727941
0.727941
0.727941
0.727941
0.727941
0.727941
0.727941
0.727941
0.727941
0.727941
0.727941
0.825
0.825
0.825
0.825
0.825
0.825
0.825
0.825
0.825
0.825
0.825
0.825
0.825
0.825
0.825
0.825
0.825
0.825
0.825
0.825
0.825
0.825
0.825
0.825
0.825
0.825
0.825
0.825
0.825
0.825
0.825
0.825
0.825
0.825
0.825
0.825
0.825
0.825
0.825
0.825
0.825
0.825
0.825
0.825
0.825
0.825
0.825
0.825
0.825
0.825
0.922059
0.922059
0.922059
0.922059
0.922059
0.922059
0.922059
0.922059
0.922059
0.922059
0.922059
0.922059
0.922059
0.922059
0.922059
0.922059
0.922059
0.922059
0.922059
0.922059
0.922059
0.922059
0.922059
0.922059
0.922059
0.922059
0.922059
0.922059
0.922059
0.922059
0.922059
0.922059
0.922059
0.922059
0.922059
0.922059
0.922059
0.922059
0.922059
0.922059
0.922059
0.922059
0.922059
0.922059
0.922059
0.922059
0.922059
0.922059
0.922059
0.922059
1.01912
1.01912
1.01912
1.01912
1.01912
1.01912
1.01912
1.01912
1.01912
1.01912
1.01912
1.01912
1.01912
1.01912
1.01912
1.01912
1.01912
1.01912
1.01912
1.01912
1.01912
1.01912
1.01912
1.01912
1.01912
1.01912
1.01912
1.01912
1.01912
1.01912
1.01912
1.01912
1.01912
1.01912
1.01912
1.01912
1.01912
1.01912
1.01912
1.01912
1.01912
1.01912
1.01912
1.01912
1.01912
1.01912
1.01912
1.01912
1.01912
1.01912
1.11618
1.11618
1.11618
1.11618
1.11618
1.11618
1.11618
1.11618
1.11618
1.11618
1.11618
1.11618
1.11618
1.11618
1.11618
1.11618
1.11618
1.11618
1.11618
1.11618
1.11618
1.11618
1.11618
1.11618
1.11618
1.11618
1.11618
1.11618
1.11618
1.11618
1.11618
1.11618
1.11618
1.11618
1.11618
1.11618
1.11618
1.11618
1.11618
1.11618
1.11618
1.11618
1.11618
1.11618
1.11618
1.11618
1.11618
1.11618
1.11618
1.11618
1.21324
1.21324
1.21324
1.21324
1.21324
1.21324
1.21324
1.21324
1.21324
1.21324
1.21324
1.21324
1.21324
1.21324
1.21324
1.21324
1.21324
1.21324
1.21324
1.21324
1.21324
1.21324
1.21324
1.21324
1.21324
1.21324
1.21324
1.21324
1.21324
1.21324
1.21324
1.21324
1.21324
1.21324
1.21324
1.21324
1.21324
1.21324
1.21324
1.21324
1.21324
1.21324
1.21324
1.21324
1.21324
1.21324
1.21324
1.21324
1.21324
1.21324
1.31029
1.31029
1.31029
1.31029
1.31029
1.31029
1.31029
1.31029
1.31029
1.31029
1.31029
1.31029
1.31029
1.31029
1.31029
1.31029
1.31029
1.31029
1.31029
1.31029
1.31029
1.31029
1.31029
1.31029
1.31029
1.31029
1.31029
1.31029
1.31029
1.31029
1.31029
1.31029
1.31029
1.31029
1.31029
1.31029
1.31029
1.31029
1.31029
1.31029
1.31029
1.31029
1.31029
1.31029
1.31029
1.31029
1.31029
1.31029
1.31029
1.31029
1.40735
1.40735
1.40735
1.40735
1.40735
1.40735
1.40735
1.40735
1.40735
1.40735
1.40735
1.40735
1.40735
1.40735
1.40735
1.40735
1.40735
1.40735
1.40735
1.40735
1.40735
1.40735
1.40735
1.40735
1.40735
1.40735
1.40735
1.40735
1.40735
1.40735
1.40735
1.40735
1.40735
1.40735
1.40735
1.40735
1.40735
1.40735
1.40735
1.40735
1.40735
1.40735
1.40735
1.40735
1.40735
1.40735
1.40735
1.40735
1.40735
1.40735
1.50441
1.50441
1.50441
1.50441
1.50441
1.50441
1.50441
1.50441
1.50441
1.50441
1.50441
1.50441
1.50441
1.50441
1.50441
1.50441
1.50441
1.50441
1.50441
1.50441
1.50441
1.50441
1.50441
1.50441
1.50441
1.50441
1.50441
1.50441
1.50441
1.50441
1.50441
1.50441
1.50441
1.50441
1.50441
1.50441
1.50441
1.50441
1.50441
1.50441
1.50441
1.50441
1.50441
1.50441
1.50441
1.50441
1.50441
1.50441
1.50441
1.50441
1.60147
1.60147
1.60147
1.60147
1.60147
1.60147
1.60147
1.60147
1.60147
1.60147
1.60147
1.60147
1.60147
1.60147
1.60147
1.60147
1.60147
1.60147
1.60147
1.60147
1.60147
1.60147
1.60147
1.60147
1.60147
1.60147
1.60147
1.60147
1.60147
1.60147
1.60147
1.60147
1.60147
1.60147
1.60147
1.60147
1.60147
1.60147
1.60147
1.60147
1.60147
1.60147
1.60147
1.60147
1.60147
1.60147
1.60147
1.60147
1.60147
1.60147
0.0485294
0.0485294
0.0485294
0.0485294
0.0485294
0.0485294
0.0485294
0.0485294
0.0485294
0.0485294
0.0485294
0.0485294
0.0485294
0.0485294
0.0485294
0.0485294
0.0485294
0.0485294
0.0485294
0.0485294
0.0485294
0.0485294
0.0485294
0.0485294
0.0485294
0.0485294
0.0485294
0.0485294